PPY.sdf


 27 29  0  0  0  0  0  0  0  0999 V2000
  -21.7962   42.1412   28.7898 O   0  0  0  0  0
  -22.3432   44.1830   29.4927 O   0  0  0  0  0
  -27.1579   39.0921   30.0376 O   0  0  0  0  0
  -21.3216   43.3095   25.4085 O   0  0  0  0  0
  -23.6166   38.2453   26.3049 O   0  0  0  0  0
  -22.4177   43.1751   28.5981 C   0  0  0  0  0
  -23.3083   43.4991   27.3971 C   0  0  0  0  0
  -24.7688   43.7314   27.8209 C   0  0  0  0  0
  -25.4530   42.5151   28.4084 C   0  0  0  0  0
  -25.4111   42.2724   29.7884 C   0  0  0  0  0
  -25.9951   41.1223   30.3207 C   0  0  0  0  0
  -26.6174   40.2112   29.4771 C   0  0  0  0  0
  -26.6828   40.4386   28.1072 C   0  0  0  0  0
  -26.1082   41.5948   27.5757 C   0  0  0  0  0
  -22.1180   42.3830   25.5356 C   0  0  0  0  0
  -22.0523   41.1187   24.6487 C   0  0  0  0  0
  -22.5549   41.4572   23.2425 C   0  0  0  0  0
  -24.0539   41.1897   23.3304 C   0  0  0  0  0
  -24.1322   39.9646   24.2263 C   0  0  0  0  0
  -22.7403   39.0756   26.0432 C   0  0  0  0  0
  -21.3770   39.0710   26.7777 C   0  0  0  0  0
  -20.2529   38.5325   25.8912 C   0  0  0  0  0
  -19.7339   37.2944   26.6062 C   0  0  0  0  0
  -20.8893   36.8775   27.4877 C   0  0  0  0  0
  -23.1929   42.4344   26.3962 N   0  0  0  0  0
  -22.9609   40.0455   25.0853 N   0  0  0  0  0
  -21.4210   38.1582   27.9463 N   0  0  0  0  0
  6  2  1  0  0  0
  7  6  1  0  0  0
  7  8  1  0  0  0
  7 25  1  0  0  0
  8  9  1  0  0  0
  9 14  1  0  0  0
 10 11  1  0  0  0
 12  3  1  0  0  0
 12 13  1  0  0  0
 16 15  1  0  0  0
 16 17  1  0  0  0
 16 26  1  0  0  0
 17 18  1  0  0  0
 18 19  1  0  0  0
 19 26  1  0  0  0
 21 20  1  0  0  0
 21 22  1  0  0  0
 21 27  1  0  0  0
 22 23  1  0  0  0
 23 24  1  0  0  0
 24 27  1  0  0  0
 25 15  1  0  0  0
 26 20  1  0  0  0
  6  1  2  0  0  0
  9 10  2  0  0  0
 11 12  2  0  0  0
 13 14  2  0  0  0
 15  4  2  0  0  0
 20  5  2  0  0  0
M  END
> <rmsd>
0.74853766

$$$$
PPY.sdf


 27 29  0  0  0  0  0  0  0  0999 V2000
  -21.7962   42.1412   28.7898 O   0  0  0  0  0
  -22.3432   44.1830   29.4927 O   0  0  0  0  0
  -27.1579   39.0921   30.0376 O   0  0  0  0  0
  -21.3216   43.3095   25.4085 O   0  0  0  0  0
  -23.6166   38.2453   26.3049 O   0  0  0  0  0
  -22.4177   43.1751   28.5981 C   0  0  0  0  0
  -23.3083   43.4991   27.3971 C   0  0  0  0  0
  -24.7688   43.7314   27.8209 C   0  0  0  0  0
  -25.4530   42.5151   28.4084 C   0  0  0  0  0
  -25.4111   42.2724   29.7884 C   0  0  0  0  0
  -25.9951   41.1223   30.3207 C   0  0  0  0  0
  -26.6174   40.2112   29.4771 C   0  0  0  0  0
  -26.6828   40.4386   28.1072 C   0  0  0  0  0
  -26.1082   41.5948   27.5757 C   0  0  0  0  0
  -22.1180   42.3830   25.5356 C   0  0  0  0  0
  -22.0523   41.1187   24.6487 C   0  0  0  0  0
  -22.5549   41.4572   23.2425 C   0  0  0  0  0
  -24.0539   41.1897   23.3304 C   0  0  0  0  0
  -24.1322   39.9646   24.2263 C   0  0  0  0  0
  -22.7403   39.0756   26.0432 C   0  0  0  0  0
  -21.3770   39.0710   26.7777 C   0  0  0  0  0
  -20.2529   38.5325   25.8912 C   0  0  0  0  0
  -19.7339   37.2944   26.6062 C   0  0  0  0  0
  -20.8893   36.8775   27.4877 C   0  0  0  0  0
  -23.1929   42.4344   26.3962 N   0  0  0  0  0
  -22.9609   40.0455   25.0853 N   0  0  0  0  0
  -21.4210   38.1582   27.9463 N   0  0  0  0  0
  6  2  1  0  0  0
  7  6  1  0  0  0
  7  8  1  0  0  0
  7 25  1  0  0  0
  8  9  1  0  0  0
  9 14  1  0  0  0
 10 11  1  0  0  0
 12  3  1  0  0  0
 12 13  1  0  0  0
 16 15  1  0  0  0
 16 17  1  0  0  0
 16 26  1  0  0  0
 17 18  1  0  0  0
 18 19  1  0  0  0
 19 26  1  0  0  0
 21 20  1  0  0  0
 21 22  1  0  0  0
 21 27  1  0  0  0
 22 23  1  0  0  0
 23 24  1  0  0  0
 24 27  1  0  0  0
 25 15  1  0  0  0
 26 20  1  0  0  0
  6  1  2  0  0  0
  9 10  2  0  0  0
 11 12  2  0  0  0
 13 14  2  0  0  0
 15  4  2  0  0  0
 20  5  2  0  0  0
M  END
> <rmsd>
0.74853766

$$$$
PPY.sdf


 27 29  0  0  0  0  0  0  0  0999 V2000
  -21.7962   42.1412   28.7898 O   0  0  0  0  0
  -22.3432   44.1830   29.4927 O   0  0  0  0  0
  -27.1579   39.0921   30.0376 O   0  0  0  0  0
  -21.3216   43.3095   25.4085 O   0  0  0  0  0
  -23.6166   38.2453   26.3049 O   0  0  0  0  0
  -22.4177   43.1751   28.5981 C   0  0  0  0  0
  -23.3083   43.4991   27.3971 C   0  0  0  0  0
  -24.7688   43.7314   27.8209 C   0  0  0  0  0
  -25.4530   42.5151   28.4084 C   0  0  0  0  0
  -25.4111   42.2724   29.7884 C   0  0  0  0  0
  -25.9951   41.1223   30.3207 C   0  0  0  0  0
  -26.6174   40.2112   29.4771 C   0  0  0  0  0
  -26.6828   40.4386   28.1072 C   0  0  0  0  0
  -26.1082   41.5948   27.5757 C   0  0  0  0  0
  -22.1180   42.3830   25.5356 C   0  0  0  0  0
  -22.0523   41.1187   24.6487 C   0  0  0  0  0
  -22.5549   41.4572   23.2425 C   0  0  0  0  0
  -24.0539   41.1897   23.3304 C   0  0  0  0  0
  -24.1322   39.9646   24.2263 C   0  0  0  0  0
  -22.7403   39.0756   26.0432 C   0  0  0  0  0
  -21.3770   39.0710   26.7777 C   0  0  0  0  0
  -20.2529   38.5325   25.8912 C   0  0  0  0  0
  -19.7339   37.2944   26.6062 C   0  0  0  0  0
  -20.8893   36.8775   27.4877 C   0  0  0  0  0
  -23.1929   42.4344   26.3962 N   0  0  0  0  0
  -22.9609   40.0455   25.0853 N   0  0  0  0  0
  -21.4210   38.1582   27.9463 N   0  0  0  0  0
  6  2  1  0  0  0
  7  6  1  0  0  0
  7  8  1  0  0  0
  7 25  1  0  0  0
  8  9  1  0  0  0
  9 14  1  0  0  0
 10 11  1  0  0  0
 12  3  1  0  0  0
 12 13  1  0  0  0
 16 15  1  0  0  0
 16 17  1  0  0  0
 16 26  1  0  0  0
 17 18  1  0  0  0
 18 19  1  0  0  0
 19 26  1  0  0  0
 21 20  1  0  0  0
 21 22  1  0  0  0
 21 27  1  0  0  0
 22 23  1  0  0  0
 23 24  1  0  0  0
 24 27  1  0  0  0
 25 15  1  0  0  0
 26 20  1  0  0  0
  6  1  2  0  0  0
  9 10  2  0  0  0
 11 12  2  0  0  0
 13 14  2  0  0  0
 15  4  2  0  0  0
 20  5  2  0  0  0
M  END
> <rmsd>
0.74853766

$$$$
PPY.sdf


 27 29  0  0  0  0  0  0  0  0999 V2000
  -21.7962   42.1412   28.7898 O   0  0  0  0  0
  -22.3432   44.1830   29.4927 O   0  0  0  0  0
  -27.1579   39.0921   30.0376 O   0  0  0  0  0
  -21.3216   43.3095   25.4085 O   0  0  0  0  0
  -23.6166   38.2453   26.3049 O   0  0  0  0  0
  -22.4177   43.1751   28.5981 C   0  0  0  0  0
  -23.3083   43.4991   27.3971 C   0  0  0  0  0
  -24.7688   43.7314   27.8209 C   0  0  0  0  0
  -25.4530   42.5151   28.4084 C   0  0  0  0  0
  -25.4111   42.2724   29.7884 C   0  0  0  0  0
  -25.9951   41.1223   30.3207 C   0  0  0  0  0
  -26.6174   40.2112   29.4771 C   0  0  0  0  0
  -26.6828   40.4386   28.1072 C   0  0  0  0  0
  -26.1082   41.5948   27.5757 C   0  0  0  0  0
  -22.1180   42.3830   25.5356 C   0  0  0  0  0
  -22.0523   41.1187   24.6487 C   0  0  0  0  0
  -22.5549   41.4572   23.2425 C   0  0  0  0  0
  -24.0539   41.1897   23.3304 C   0  0  0  0  0
  -24.1322   39.9646   24.2263 C   0  0  0  0  0
  -22.7403   39.0756   26.0432 C   0  0  0  0  0
  -21.3770   39.0710   26.7777 C   0  0  0  0  0
  -20.2529   38.5325   25.8912 C   0  0  0  0  0
  -19.7339   37.2944   26.6062 C   0  0  0  0  0
  -20.8893   36.8775   27.4877 C   0  0  0  0  0
  -23.1929   42.4344   26.3962 N   0  0  0  0  0
  -22.9609   40.0455   25.0853 N   0  0  0  0  0
  -21.4210   38.1582   27.9463 N   0  0  0  0  0
  6  2  1  0  0  0
  7  6  1  0  0  0
  7  8  1  0  0  0
  7 25  1  0  0  0
  8  9  1  0  0  0
  9 14  1  0  0  0
 10 11  1  0  0  0
 12  3  1  0  0  0
 12 13  1  0  0  0
 16 15  1  0  0  0
 16 17  1  0  0  0
 16 26  1  0  0  0
 17 18  1  0  0  0
 18 19  1  0  0  0
 19 26  1  0  0  0
 21 20  1  0  0  0
 21 22  1  0  0  0
 21 27  1  0  0  0
 22 23  1  0  0  0
 23 24  1  0  0  0
 24 27  1  0  0  0
 25 15  1  0  0  0
 26 20  1  0  0  0
  6  1  2  0  0  0
  9 10  2  0  0  0
 11 12  2  0  0  0
 13 14  2  0  0  0
 15  4  2  0  0  0
 20  5  2  0  0  0
M  END
> <rmsd>
0.74853766

$$$$
