PPY.sdf


 27 29  0  0  0  0  0  0  0  0999 V2000
  -19.6338   39.5074   28.3631 O   0  0  0  0  0
  -21.0376   41.2295   28.1968 O   0  0  0  0  0
  -19.2962   33.2957   26.5643 O   0  0  0  0  0
  -24.2996   38.5308   26.0978 O   0  0  0  0  0
  -24.5570   43.5767   28.5150 O   0  0  0  0  0
  -20.6823   39.9492   27.9237 C   0  0  0  0  0
  -21.7150   39.2084   27.0636 C   0  0  0  0  0
  -21.0456   38.6331   25.8070 C   0  0  0  0  0
  -20.5780   37.2087   25.9983 C   0  0  0  0  0
  -21.4888   36.1488   25.8691 C   0  0  0  0  0
  -21.0733   34.8287   26.0547 C   0  0  0  0  0
  -19.7449   34.5693   26.3737 C   0  0  0  0  0
  -18.8307   35.6064   26.5117 C   0  0  0  0  0
  -19.2457   36.9260   26.3260 C   0  0  0  0  0
  -24.0463   39.7071   26.3448 C   0  0  0  0  0
  -25.0943   40.8243   26.1562 C   0  0  0  0  0
  -25.2175   41.1827   24.6733 C   0  0  0  0  0
  -24.2213   42.3242   24.4967 C   0  0  0  0  0
  -24.3474   43.0943   25.8006 C   0  0  0  0  0
  -24.8414   42.4419   28.1193 C   0  0  0  0  0
  -25.3696   41.3724   29.1010 C   0  0  0  0  0
  -26.8958   41.3428   29.1078 C   0  0  0  0  0
  -27.2760   41.9636   30.4382 C   0  0  0  0  0
  -26.1228   41.5694   31.3341 C   0  0  0  0  0
  -22.7946   40.1382   26.7103 N   0  0  0  0  0
  -24.7075   42.0933   26.7915 N   0  0  0  0  0
  -24.9373   41.7108   30.4851 N   0  0  0  0  0
  6  2  1  0  0  0
  7  6  1  0  0  0
  7  8  1  0  0  0
  7 25  1  0  0  0
  8  9  1  0  0  0
  9 14  1  0  0  0
 10 11  1  0  0  0
 12  3  1  0  0  0
 12 13  1  0  0  0
 16 15  1  0  0  0
 16 17  1  0  0  0
 16 26  1  0  0  0
 17 18  1  0  0  0
 18 19  1  0  0  0
 19 26  1  0  0  0
 21 20  1  0  0  0
 21 22  1  0  0  0
 21 27  1  0  0  0
 22 23  1  0  0  0
 23 24  1  0  0  0
 24 27  1  0  0  0
 25 15  1  0  0  0
 26 20  1  0  0  0
  6  1  2  0  0  0
  9 10  2  0  0  0
 11 12  2  0  0  0
 13 14  2  0  0  0
 15  4  2  0  0  0
 20  5  2  0  0  0
M  END
> <rmsd>
0.640843749

$$$$
PPY.sdf


 27 29  0  0  0  0  0  0  0  0999 V2000
  -25.3392   39.8063   25.8313 O   0  0  0  0  0
  -23.9352   38.2996   24.9781 O   0  0  0  0  0
  -23.4953   33.0328   27.7787 O   0  0  0  0  0
  -20.9427   40.6597   28.0815 O   0  0  0  0  0
  -24.7431   42.8191   28.1187 O   0  0  0  0  0
  -24.2711   39.2173   25.9072 C   0  0  0  0  0
  -23.2104   39.4023   26.9864 C   0  0  0  0  0
  -23.6359   38.6751   28.2702 C   0  0  0  0  0
  -23.5912   37.1703   28.1517 C   0  0  0  0  0
  -22.3602   36.4975   28.1552 C   0  0  0  0  0
  -22.3116   35.1075   28.0310 C   0  0  0  0  0
  -23.4967   34.3907   27.9036 C   0  0  0  0  0
  -24.7249   35.0402   27.8996 C   0  0  0  0  0
  -24.7742   36.4293   28.0233 C   0  0  0  0  0
  -21.9239   41.3524   27.8213 C   0  0  0  0  0
  -22.0205   42.8585   28.1577 C   0  0  0  0  0
  -20.6705   43.4553   28.5534 C   0  0  0  0  0
  -20.6026   43.1995   30.0519 C   0  0  0  0  0
  -22.0439   43.3880   30.5062 C   0  0  0  0  0
  -24.2357   43.0770   29.2192 C   0  0  0  0  0
  -25.1616   43.4145   30.4031 C   0  0  0  0  0
  -25.1236   44.8620   30.8664 C   0  0  0  0  0
  -25.3893   44.7617   32.3563 C   0  0  0  0  0
  -24.7327   43.4514   32.7425 C   0  0  0  0  0
  -23.0549   40.8366   27.2284 N   0  0  0  0  0
  -22.8634   43.0651   29.3459 N   0  0  0  0  0
  -24.9497   42.5703   31.5982 N   0  0  0  0  0
  6  2  1  0  0  0
  7  6  1  0  0  0
  7  8  1  0  0  0
  7 25  1  0  0  0
  8  9  1  0  0  0
  9 14  1  0  0  0
 10 11  1  0  0  0
 12  3  1  0  0  0
 12 13  1  0  0  0
 16 15  1  0  0  0
 16 17  1  0  0  0
 16 26  1  0  0  0
 17 18  1  0  0  0
 18 19  1  0  0  0
 19 26  1  0  0  0
 21 20  1  0  0  0
 21 22  1  0  0  0
 21 27  1  0  0  0
 22 23  1  0  0  0
 23 24  1  0  0  0
 24 27  1  0  0  0
 25 15  1  0  0  0
 26 20  1  0  0  0
  6  1  2  0  0  0
  9 10  2  0  0  0
 11 12  2  0  0  0
 13 14  2  0  0  0
 15  4  2  0  0  0
 20  5  2  0  0  0
M  END
> <rmsd>
0.897676468

$$$$
PPY.sdf


 27 29  0  0  0  0  0  0  0  0999 V2000
  -19.6338   39.5074   28.3631 O   0  0  0  0  0
  -21.0376   41.2295   28.1968 O   0  0  0  0  0
  -19.2962   33.2957   26.5643 O   0  0  0  0  0
  -24.2996   38.5308   26.0978 O   0  0  0  0  0
  -24.5570   43.5767   28.5150 O   0  0  0  0  0
  -20.6823   39.9492   27.9237 C   0  0  0  0  0
  -21.7150   39.2084   27.0636 C   0  0  0  0  0
  -21.0456   38.6331   25.8070 C   0  0  0  0  0
  -20.5780   37.2087   25.9983 C   0  0  0  0  0
  -21.4888   36.1488   25.8691 C   0  0  0  0  0
  -21.0733   34.8287   26.0547 C   0  0  0  0  0
  -19.7449   34.5693   26.3737 C   0  0  0  0  0
  -18.8307   35.6064   26.5117 C   0  0  0  0  0
  -19.2457   36.9260   26.3260 C   0  0  0  0  0
  -24.0463   39.7071   26.3448 C   0  0  0  0  0
  -25.0943   40.8243   26.1562 C   0  0  0  0  0
  -25.2175   41.1827   24.6733 C   0  0  0  0  0
  -24.2213   42.3242   24.4967 C   0  0  0  0  0
  -24.3474   43.0943   25.8006 C   0  0  0  0  0
  -24.8414   42.4419   28.1193 C   0  0  0  0  0
  -25.3696   41.3724   29.1010 C   0  0  0  0  0
  -26.8958   41.3428   29.1078 C   0  0  0  0  0
  -27.2760   41.9636   30.4382 C   0  0  0  0  0
  -26.1228   41.5694   31.3341 C   0  0  0  0  0
  -22.7946   40.1382   26.7103 N   0  0  0  0  0
  -24.7075   42.0933   26.7915 N   0  0  0  0  0
  -24.9373   41.7108   30.4851 N   0  0  0  0  0
  6  2  1  0  0  0
  7  6  1  0  0  0
  7  8  1  0  0  0
  7 25  1  0  0  0
  8  9  1  0  0  0
  9 14  1  0  0  0
 10 11  1  0  0  0
 12  3  1  0  0  0
 12 13  1  0  0  0
 16 15  1  0  0  0
 16 17  1  0  0  0
 16 26  1  0  0  0
 17 18  1  0  0  0
 18 19  1  0  0  0
 19 26  1  0  0  0
 21 20  1  0  0  0
 21 22  1  0  0  0
 21 27  1  0  0  0
 22 23  1  0  0  0
 23 24  1  0  0  0
 24 27  1  0  0  0
 25 15  1  0  0  0
 26 20  1  0  0  0
  6  1  2  0  0  0
  9 10  2  0  0  0
 11 12  2  0  0  0
 13 14  2  0  0  0
 15  4  2  0  0  0
 20  5  2  0  0  0
M  END
> <rmsd>
0.640843749

$$$$
PPY.sdf


 27 29  0  0  0  0  0  0  0  0999 V2000
  -25.3392   39.8063   25.8313 O   0  0  0  0  0
  -23.9352   38.2996   24.9781 O   0  0  0  0  0
  -23.4953   33.0328   27.7787 O   0  0  0  0  0
  -20.9427   40.6597   28.0815 O   0  0  0  0  0
  -24.7431   42.8191   28.1187 O   0  0  0  0  0
  -24.2711   39.2173   25.9072 C   0  0  0  0  0
  -23.2104   39.4023   26.9864 C   0  0  0  0  0
  -23.6359   38.6751   28.2702 C   0  0  0  0  0
  -23.5912   37.1703   28.1517 C   0  0  0  0  0
  -22.3602   36.4975   28.1552 C   0  0  0  0  0
  -22.3116   35.1075   28.0310 C   0  0  0  0  0
  -23.4967   34.3907   27.9036 C   0  0  0  0  0
  -24.7249   35.0402   27.8996 C   0  0  0  0  0
  -24.7742   36.4293   28.0233 C   0  0  0  0  0
  -21.9239   41.3524   27.8213 C   0  0  0  0  0
  -22.0205   42.8585   28.1577 C   0  0  0  0  0
  -20.6705   43.4553   28.5534 C   0  0  0  0  0
  -20.6026   43.1995   30.0519 C   0  0  0  0  0
  -22.0439   43.3880   30.5062 C   0  0  0  0  0
  -24.2357   43.0770   29.2192 C   0  0  0  0  0
  -25.1616   43.4145   30.4031 C   0  0  0  0  0
  -25.1236   44.8620   30.8664 C   0  0  0  0  0
  -25.3893   44.7617   32.3563 C   0  0  0  0  0
  -24.7327   43.4514   32.7425 C   0  0  0  0  0
  -23.0549   40.8366   27.2284 N   0  0  0  0  0
  -22.8634   43.0651   29.3459 N   0  0  0  0  0
  -24.9497   42.5703   31.5982 N   0  0  0  0  0
  6  2  1  0  0  0
  7  6  1  0  0  0
  7  8  1  0  0  0
  7 25  1  0  0  0
  8  9  1  0  0  0
  9 14  1  0  0  0
 10 11  1  0  0  0
 12  3  1  0  0  0
 12 13  1  0  0  0
 16 15  1  0  0  0
 16 17  1  0  0  0
 16 26  1  0  0  0
 17 18  1  0  0  0
 18 19  1  0  0  0
 19 26  1  0  0  0
 21 20  1  0  0  0
 21 22  1  0  0  0
 21 27  1  0  0  0
 22 23  1  0  0  0
 23 24  1  0  0  0
 24 27  1  0  0  0
 25 15  1  0  0  0
 26 20  1  0  0  0
  6  1  2  0  0  0
  9 10  2  0  0  0
 11 12  2  0  0  0
 13 14  2  0  0  0
 15  4  2  0  0  0
 20  5  2  0  0  0
M  END
> <rmsd>
0.897676468

$$$$
PPY.sdf


 27 29  0  0  0  0  0  0  0  0999 V2000
  -19.6338   39.5074   28.3631 O   0  0  0  0  0
  -21.0376   41.2295   28.1968 O   0  0  0  0  0
  -19.2962   33.2957   26.5643 O   0  0  0  0  0
  -24.2996   38.5308   26.0978 O   0  0  0  0  0
  -24.5570   43.5767   28.5150 O   0  0  0  0  0
  -20.6823   39.9492   27.9237 C   0  0  0  0  0
  -21.7150   39.2084   27.0636 C   0  0  0  0  0
  -21.0456   38.6331   25.8070 C   0  0  0  0  0
  -20.5780   37.2087   25.9983 C   0  0  0  0  0
  -21.4888   36.1488   25.8691 C   0  0  0  0  0
  -21.0733   34.8287   26.0547 C   0  0  0  0  0
  -19.7449   34.5693   26.3737 C   0  0  0  0  0
  -18.8307   35.6064   26.5117 C   0  0  0  0  0
  -19.2457   36.9260   26.3260 C   0  0  0  0  0
  -24.0463   39.7071   26.3448 C   0  0  0  0  0
  -25.0943   40.8243   26.1562 C   0  0  0  0  0
  -25.2175   41.1827   24.6733 C   0  0  0  0  0
  -24.2213   42.3242   24.4967 C   0  0  0  0  0
  -24.3474   43.0943   25.8006 C   0  0  0  0  0
  -24.8414   42.4419   28.1193 C   0  0  0  0  0
  -25.3696   41.3724   29.1010 C   0  0  0  0  0
  -26.8958   41.3428   29.1078 C   0  0  0  0  0
  -27.2760   41.9636   30.4382 C   0  0  0  0  0
  -26.1228   41.5694   31.3341 C   0  0  0  0  0
  -22.7946   40.1382   26.7103 N   0  0  0  0  0
  -24.7075   42.0933   26.7915 N   0  0  0  0  0
  -24.9373   41.7108   30.4851 N   0  0  0  0  0
  6  2  1  0  0  0
  7  6  1  0  0  0
  7  8  1  0  0  0
  7 25  1  0  0  0
  8  9  1  0  0  0
  9 14  1  0  0  0
 10 11  1  0  0  0
 12  3  1  0  0  0
 12 13  1  0  0  0
 16 15  1  0  0  0
 16 17  1  0  0  0
 16 26  1  0  0  0
 17 18  1  0  0  0
 18 19  1  0  0  0
 19 26  1  0  0  0
 21 20  1  0  0  0
 21 22  1  0  0  0
 21 27  1  0  0  0
 22 23  1  0  0  0
 23 24  1  0  0  0
 24 27  1  0  0  0
 25 15  1  0  0  0
 26 20  1  0  0  0
  6  1  2  0  0  0
  9 10  2  0  0  0
 11 12  2  0  0  0
 13 14  2  0  0  0
 15  4  2  0  0  0
 20  5  2  0  0  0
M  END
> <rmsd>
0.640843749

$$$$
PPY.sdf


 27 29  0  0  0  0  0  0  0  0999 V2000
  -25.3392   39.8063   25.8313 O   0  0  0  0  0
  -23.9352   38.2996   24.9781 O   0  0  0  0  0
  -23.4953   33.0328   27.7787 O   0  0  0  0  0
  -20.9427   40.6597   28.0815 O   0  0  0  0  0
  -24.7431   42.8191   28.1187 O   0  0  0  0  0
  -24.2711   39.2173   25.9072 C   0  0  0  0  0
  -23.2104   39.4023   26.9864 C   0  0  0  0  0
  -23.6359   38.6751   28.2702 C   0  0  0  0  0
  -23.5912   37.1703   28.1517 C   0  0  0  0  0
  -22.3602   36.4975   28.1552 C   0  0  0  0  0
  -22.3116   35.1075   28.0310 C   0  0  0  0  0
  -23.4967   34.3907   27.9036 C   0  0  0  0  0
  -24.7249   35.0402   27.8996 C   0  0  0  0  0
  -24.7742   36.4293   28.0233 C   0  0  0  0  0
  -21.9239   41.3524   27.8213 C   0  0  0  0  0
  -22.0205   42.8585   28.1577 C   0  0  0  0  0
  -20.6705   43.4553   28.5534 C   0  0  0  0  0
  -20.6026   43.1995   30.0519 C   0  0  0  0  0
  -22.0439   43.3880   30.5062 C   0  0  0  0  0
  -24.2357   43.0770   29.2192 C   0  0  0  0  0
  -25.1616   43.4145   30.4031 C   0  0  0  0  0
  -25.1236   44.8620   30.8664 C   0  0  0  0  0
  -25.3893   44.7617   32.3563 C   0  0  0  0  0
  -24.7327   43.4514   32.7425 C   0  0  0  0  0
  -23.0549   40.8366   27.2284 N   0  0  0  0  0
  -22.8634   43.0651   29.3459 N   0  0  0  0  0
  -24.9497   42.5703   31.5982 N   0  0  0  0  0
  6  2  1  0  0  0
  7  6  1  0  0  0
  7  8  1  0  0  0
  7 25  1  0  0  0
  8  9  1  0  0  0
  9 14  1  0  0  0
 10 11  1  0  0  0
 12  3  1  0  0  0
 12 13  1  0  0  0
 16 15  1  0  0  0
 16 17  1  0  0  0
 16 26  1  0  0  0
 17 18  1  0  0  0
 18 19  1  0  0  0
 19 26  1  0  0  0
 21 20  1  0  0  0
 21 22  1  0  0  0
 21 27  1  0  0  0
 22 23  1  0  0  0
 23 24  1  0  0  0
 24 27  1  0  0  0
 25 15  1  0  0  0
 26 20  1  0  0  0
  6  1  2  0  0  0
  9 10  2  0  0  0
 11 12  2  0  0  0
 13 14  2  0  0  0
 15  4  2  0  0  0
 20  5  2  0  0  0
M  END
> <rmsd>
0.897676468

$$$$
PPY.sdf


 27 29  0  0  0  0  0  0  0  0999 V2000
  -19.6338   39.5074   28.3631 O   0  0  0  0  0
  -21.0376   41.2295   28.1968 O   0  0  0  0  0
  -19.2962   33.2957   26.5643 O   0  0  0  0  0
  -24.2996   38.5308   26.0978 O   0  0  0  0  0
  -24.5570   43.5767   28.5150 O   0  0  0  0  0
  -20.6823   39.9492   27.9237 C   0  0  0  0  0
  -21.7150   39.2084   27.0636 C   0  0  0  0  0
  -21.0456   38.6331   25.8070 C   0  0  0  0  0
  -20.5780   37.2087   25.9983 C   0  0  0  0  0
  -21.4888   36.1488   25.8691 C   0  0  0  0  0
  -21.0733   34.8287   26.0547 C   0  0  0  0  0
  -19.7449   34.5693   26.3737 C   0  0  0  0  0
  -18.8307   35.6064   26.5117 C   0  0  0  0  0
  -19.2457   36.9260   26.3260 C   0  0  0  0  0
  -24.0463   39.7071   26.3448 C   0  0  0  0  0
  -25.0943   40.8243   26.1562 C   0  0  0  0  0
  -25.2175   41.1827   24.6733 C   0  0  0  0  0
  -24.2213   42.3242   24.4967 C   0  0  0  0  0
  -24.3474   43.0943   25.8006 C   0  0  0  0  0
  -24.8414   42.4419   28.1193 C   0  0  0  0  0
  -25.3696   41.3724   29.1010 C   0  0  0  0  0
  -26.8958   41.3428   29.1078 C   0  0  0  0  0
  -27.2760   41.9636   30.4382 C   0  0  0  0  0
  -26.1228   41.5694   31.3341 C   0  0  0  0  0
  -22.7946   40.1382   26.7103 N   0  0  0  0  0
  -24.7075   42.0933   26.7915 N   0  0  0  0  0
  -24.9373   41.7108   30.4851 N   0  0  0  0  0
  6  2  1  0  0  0
  7  6  1  0  0  0
  7  8  1  0  0  0
  7 25  1  0  0  0
  8  9  1  0  0  0
  9 14  1  0  0  0
 10 11  1  0  0  0
 12  3  1  0  0  0
 12 13  1  0  0  0
 16 15  1  0  0  0
 16 17  1  0  0  0
 16 26  1  0  0  0
 17 18  1  0  0  0
 18 19  1  0  0  0
 19 26  1  0  0  0
 21 20  1  0  0  0
 21 22  1  0  0  0
 21 27  1  0  0  0
 22 23  1  0  0  0
 23 24  1  0  0  0
 24 27  1  0  0  0
 25 15  1  0  0  0
 26 20  1  0  0  0
  6  1  2  0  0  0
  9 10  2  0  0  0
 11 12  2  0  0  0
 13 14  2  0  0  0
 15  4  2  0  0  0
 20  5  2  0  0  0
M  END
> <rmsd>
0.640843749

$$$$
PPY.sdf


 27 29  0  0  0  0  0  0  0  0999 V2000
  -25.3392   39.8063   25.8313 O   0  0  0  0  0
  -23.9352   38.2996   24.9781 O   0  0  0  0  0
  -23.4953   33.0328   27.7787 O   0  0  0  0  0
  -20.9427   40.6597   28.0815 O   0  0  0  0  0
  -24.7431   42.8191   28.1187 O   0  0  0  0  0
  -24.2711   39.2173   25.9072 C   0  0  0  0  0
  -23.2104   39.4023   26.9864 C   0  0  0  0  0
  -23.6359   38.6751   28.2702 C   0  0  0  0  0
  -23.5912   37.1703   28.1517 C   0  0  0  0  0
  -22.3602   36.4975   28.1552 C   0  0  0  0  0
  -22.3116   35.1075   28.0310 C   0  0  0  0  0
  -23.4967   34.3907   27.9036 C   0  0  0  0  0
  -24.7249   35.0402   27.8996 C   0  0  0  0  0
  -24.7742   36.4293   28.0233 C   0  0  0  0  0
  -21.9239   41.3524   27.8213 C   0  0  0  0  0
  -22.0205   42.8585   28.1577 C   0  0  0  0  0
  -20.6705   43.4553   28.5534 C   0  0  0  0  0
  -20.6026   43.1995   30.0519 C   0  0  0  0  0
  -22.0439   43.3880   30.5062 C   0  0  0  0  0
  -24.2357   43.0770   29.2192 C   0  0  0  0  0
  -25.1616   43.4145   30.4031 C   0  0  0  0  0
  -25.1236   44.8620   30.8664 C   0  0  0  0  0
  -25.3893   44.7617   32.3563 C   0  0  0  0  0
  -24.7327   43.4514   32.7425 C   0  0  0  0  0
  -23.0549   40.8366   27.2284 N   0  0  0  0  0
  -22.8634   43.0651   29.3459 N   0  0  0  0  0
  -24.9497   42.5703   31.5982 N   0  0  0  0  0
  6  2  1  0  0  0
  7  6  1  0  0  0
  7  8  1  0  0  0
  7 25  1  0  0  0
  8  9  1  0  0  0
  9 14  1  0  0  0
 10 11  1  0  0  0
 12  3  1  0  0  0
 12 13  1  0  0  0
 16 15  1  0  0  0
 16 17  1  0  0  0
 16 26  1  0  0  0
 17 18  1  0  0  0
 18 19  1  0  0  0
 19 26  1  0  0  0
 21 20  1  0  0  0
 21 22  1  0  0  0
 21 27  1  0  0  0
 22 23  1  0  0  0
 23 24  1  0  0  0
 24 27  1  0  0  0
 25 15  1  0  0  0
 26 20  1  0  0  0
  6  1  2  0  0  0
  9 10  2  0  0  0
 11 12  2  0  0  0
 13 14  2  0  0  0
 15  4  2  0  0  0
 20  5  2  0  0  0
M  END
> <rmsd>
0.897676468

$$$$
PPY.sdf


 27 29  0  0  0  0  0  0  0  0999 V2000
  -19.6338   39.5074   28.3631 O   0  0  0  0  0
  -21.0376   41.2295   28.1968 O   0  0  0  0  0
  -19.2962   33.2957   26.5643 O   0  0  0  0  0
  -24.2996   38.5308   26.0978 O   0  0  0  0  0
  -24.5570   43.5767   28.5150 O   0  0  0  0  0
  -20.6823   39.9492   27.9237 C   0  0  0  0  0
  -21.7150   39.2084   27.0636 C   0  0  0  0  0
  -21.0456   38.6331   25.8070 C   0  0  0  0  0
  -20.5780   37.2087   25.9983 C   0  0  0  0  0
  -21.4888   36.1488   25.8691 C   0  0  0  0  0
  -21.0733   34.8287   26.0547 C   0  0  0  0  0
  -19.7449   34.5693   26.3737 C   0  0  0  0  0
  -18.8307   35.6064   26.5117 C   0  0  0  0  0
  -19.2457   36.9260   26.3260 C   0  0  0  0  0
  -24.0463   39.7071   26.3448 C   0  0  0  0  0
  -25.0943   40.8243   26.1562 C   0  0  0  0  0
  -25.2175   41.1827   24.6733 C   0  0  0  0  0
  -24.2213   42.3242   24.4967 C   0  0  0  0  0
  -24.3474   43.0943   25.8006 C   0  0  0  0  0
  -24.8414   42.4419   28.1193 C   0  0  0  0  0
  -25.3696   41.3724   29.1010 C   0  0  0  0  0
  -26.8958   41.3428   29.1078 C   0  0  0  0  0
  -27.2760   41.9636   30.4382 C   0  0  0  0  0
  -26.1228   41.5694   31.3341 C   0  0  0  0  0
  -22.7946   40.1382   26.7103 N   0  0  0  0  0
  -24.7075   42.0933   26.7915 N   0  0  0  0  0
  -24.9373   41.7108   30.4851 N   0  0  0  0  0
  6  2  1  0  0  0
  7  6  1  0  0  0
  7  8  1  0  0  0
  7 25  1  0  0  0
  8  9  1  0  0  0
  9 14  1  0  0  0
 10 11  1  0  0  0
 12  3  1  0  0  0
 12 13  1  0  0  0
 16 15  1  0  0  0
 16 17  1  0  0  0
 16 26  1  0  0  0
 17 18  1  0  0  0
 18 19  1  0  0  0
 19 26  1  0  0  0
 21 20  1  0  0  0
 21 22  1  0  0  0
 21 27  1  0  0  0
 22 23  1  0  0  0
 23 24  1  0  0  0
 24 27  1  0  0  0
 25 15  1  0  0  0
 26 20  1  0  0  0
  6  1  2  0  0  0
  9 10  2  0  0  0
 11 12  2  0  0  0
 13 14  2  0  0  0
 15  4  2  0  0  0
 20  5  2  0  0  0
M  END
> <rmsd>
0.640843749

$$$$
