leonurine.sdf
     RDKit          3D

 43 43  0  0  0  0  0  0  0  0999 V2000
   -2.9959    2.8571   -3.1275 C   0  0  0  0  0  0  0  0  0  0  0  0
   -4.0844    2.2330   -2.4557 O   0  0  0  0  0  0  0  0  0  0  0  0
   -3.7877    1.5216   -1.3200 C   0  0  0  0  0  0  0  0  0  0  0  0
   -2.5193    1.3505   -0.7693 C   0  0  0  0  0  0  0  0  0  0  0  0
   -2.3631    0.5931    0.4029 C   0  0  0  0  0  0  0  0  0  0  0  0
   -3.4817    0.0084    1.0220 C   0  0  0  0  0  0  0  0  0  0  0  0
   -4.7572    0.1717    0.4808 C   0  0  0  0  0  0  0  0  0  0  0  0
   -4.8924    0.9297   -0.6886 C   0  0  0  0  0  0  0  0  0  0  0  0
   -6.1387    1.1054   -1.2417 O   0  0  0  0  0  0  0  0  0  0  0  0
   -5.9082   -0.3541    1.0028 O   0  0  0  0  0  0  0  0  0  0  0  0
   -5.7991   -1.1260    2.1905 C   0  0  0  0  0  0  0  0  0  0  0  0
   -1.0316    0.3770    1.0351 C   0  0  0  0  0  0  0  0  0  0  0  0
   -0.8731   -0.2609    2.0634 O   0  0  0  0  0  0  0  0  0  0  0  0
   -0.0540    0.9742    0.3092 O   0  0  0  0  0  0  0  0  0  0  0  0
    1.2801    0.8360    0.8255 C   0  0  0  0  0  0  0  0  0  0  0  0
    1.9048   -0.4584    0.3146 C   0  0  0  0  0  0  0  0  0  0  0  0
    3.3560   -0.5957    0.7666 C   0  0  0  0  0  0  0  0  0  0  0  0
    3.9714   -1.9041    0.2769 C   0  0  0  0  0  0  0  0  0  0  0  0
    5.3464   -2.0024    0.7546 N   0  0  0  0  0  0  0  0  0  0  0  0
    6.3131   -1.6194    0.0144 C   0  0  0  0  0  0  0  0  0  0  0  0
    6.3084   -1.0659   -1.2178 N   0  0  0  0  0  0  0  0  0  0  0  0
    7.5837   -1.7488    0.4532 N   0  0  0  0  0  0  0  0  0  0  0  0
   -2.2759    2.1141   -3.4860 H   0  0  0  0  0  0  0  0  0  0  0  0
   -3.3982    3.3795   -4.0008 H   0  0  0  0  0  0  0  0  0  0  0  0
   -2.5122    3.6020   -2.4871 H   0  0  0  0  0  0  0  0  0  0  0  0
   -1.6465    1.7956   -1.2337 H   0  0  0  0  0  0  0  0  0  0  0  0
   -3.3269   -0.5711    1.9278 H   0  0  0  0  0  0  0  0  0  0  0  0
   -5.9964    1.6561   -2.0341 H   0  0  0  0  0  0  0  0  0  0  0  0
   -5.4134   -0.5232    3.0193 H   0  0  0  0  0  0  0  0  0  0  0  0
   -6.8036   -1.4629    2.4641 H   0  0  0  0  0  0  0  0  0  0  0  0
   -5.1828   -2.0163    2.0276 H   0  0  0  0  0  0  0  0  0  0  0  0
    1.2874    0.8890    1.9208 H   0  0  0  0  0  0  0  0  0  0  0  0
    1.8491    1.6978    0.4600 H   0  0  0  0  0  0  0  0  0  0  0  0
    1.3180   -1.3157    0.6656 H   0  0  0  0  0  0  0  0  0  0  0  0
    1.8449   -0.4823   -0.7807 H   0  0  0  0  0  0  0  0  0  0  0  0
    3.9409    0.2532    0.3914 H   0  0  0  0  0  0  0  0  0  0  0  0
    3.4095   -0.5539    1.8617 H   0  0  0  0  0  0  0  0  0  0  0  0
    3.8954   -1.9953   -0.8128 H   0  0  0  0  0  0  0  0  0  0  0  0
    3.4096   -2.7507    0.6887 H   0  0  0  0  0  0  0  0  0  0  0  0
    5.4137   -0.6856   -1.4961 H   0  0  0  0  0  0  0  0  0  0  0  0
    7.0406   -0.3728   -1.3224 H   0  0  0  0  0  0  0  0  0  0  0  0
    7.5876   -2.2968    1.3091 H   0  0  0  0  0  0  0  0  0  0  0  0
    8.1818   -2.1826   -0.2395 H   0  0  0  0  0  0  0  0  0  0  0  0
  1  2  1  0
  2  3  1  0
  3  4  2  0
  4  5  1  0
  5  6  2  0
  6  7  1  0
  7  8  2  0
  8  9  1  0
  7 10  1  0
 10 11  1  0
  5 12  1  0
 12 13  2  0
 12 14  1  0
 14 15  1  0
 15 16  1  0
 16 17  1  0
 17 18  1  0
 18 19  1  0
 19 20  2  3
 20 21  1  0
 20 22  1  0
  8  3  1  0
  1 23  1  0
  1 24  1  0
  1 25  1  0
  4 26  1  0
  6 27  1  0
  9 28  1  0
 11 29  1  0
 11 30  1  0
 11 31  1  0
 15 32  1  0
 15 33  1  0
 16 34  1  0
 16 35  1  0
 17 36  1  0
 17 37  1  0
 18 38  1  0
 18 39  1  0
 21 40  1  0
 21 41  1  0
 22 42  1  0
 22 43  1  0
M  END
$$$$
leonurine.sdf
     RDKit          3D

 43 43  0  0  0  0  0  0  0  0999 V2000
   -4.2716    3.7901   -2.8298 C   0  0  0  0  0  0  0  0  0  0  0  0
   -4.9509    2.7605   -2.1246 O   0  0  0  0  0  0  0  0  0  0  0  0
   -4.2040    1.9477   -1.3152 C   0  0  0  0  0  0  0  0  0  0  0  0
   -2.8232    2.0404   -1.1376 C   0  0  0  0  0  0  0  0  0  0  0  0
   -2.1522    1.1506   -0.2806 C   0  0  0  0  0  0  0  0  0  0  0  0
   -2.8677    0.1580    0.4087 C   0  0  0  0  0  0  0  0  0  0  0  0
   -4.2470    0.0549    0.2405 C   0  0  0  0  0  0  0  0  0  0  0  0
   -4.8993    0.9506   -0.6206 C   0  0  0  0  0  0  0  0  0  0  0  0
   -6.2603    0.8380   -0.7791 O   0  0  0  0  0  0  0  0  0  0  0  0
   -5.0669   -0.8629    0.8484 O   0  0  0  0  0  0  0  0  0  0  0  0
   -4.4515   -1.7840    1.7421 C   0  0  0  0  0  0  0  0  0  0  0  0
   -0.6774    1.3061   -0.1398 C   0  0  0  0  0  0  0  0  0  0  0  0
   -0.0374    2.1767   -0.7072 O   0  0  0  0  0  0  0  0  0  0  0  0
   -0.1724    0.3538    0.6829 O   0  0  0  0  0  0  0  0  0  0  0  0
    1.2478    0.4058    0.9050 C   0  0  0  0  0  0  0  0  0  0  0  0
    1.9712   -0.3780   -0.1871 C   0  0  0  0  0  0  0  0  0  0  0  0
    3.4916   -0.3701   -0.0357 C   0  0  0  0  0  0  0  0  0  0  0  0
    3.9787   -1.1443    1.1880 C   0  0  0  0  0  0  0  0  0  0  0  0
    5.4365   -1.1071    1.2420 N   0  0  0  0  0  0  0  0  0  0  0  0
    6.1215   -2.0398    0.7023 C   0  0  0  0  0  0  0  0  0  0  0  0
    5.7247   -3.1283    0.0075 N   0  0  0  0  0  0  0  0  0  0  0  0
    7.4688   -2.0173    0.7883 N   0  0  0  0  0  0  0  0  0  0  0  0
   -5.0143    4.3408   -3.4152 H   0  0  0  0  0  0  0  0  0  0  0  0
   -3.8011    4.4978   -2.1394 H   0  0  0  0  0  0  0  0  0  0  0  0
   -3.5398    3.3728   -3.5292 H   0  0  0  0  0  0  0  0  0  0  0  0
   -2.2407    2.7972   -1.6556 H   0  0  0  0  0  0  0  0  0  0  0  0
   -2.3353   -0.5192    1.0672 H   0  0  0  0  0  0  0  0  0  0  0  0
   -6.5276    0.0924   -0.2099 H   0  0  0  0  0  0  0  0  0  0  0  0
   -5.2349   -2.4349    2.1419 H   0  0  0  0  0  0  0  0  0  0  0  0
   -3.7274   -2.4168    1.2185 H   0  0  0  0  0  0  0  0  0  0  0  0
   -3.9871   -1.2639    2.5863 H   0  0  0  0  0  0  0  0  0  0  0  0
    1.4201   -0.0491    1.8852 H   0  0  0  0  0  0  0  0  0  0  0  0
    1.5996    1.4425    0.9646 H   0  0  0  0  0  0  0  0  0  0  0  0
    1.7132    0.0465   -1.1651 H   0  0  0  0  0  0  0  0  0  0  0  0
    1.5965   -1.4089   -0.2086 H   0  0  0  0  0  0  0  0  0  0  0  0
    3.9305   -0.8099   -0.9399 H   0  0  0  0  0  0  0  0  0  0  0  0
    3.8555    0.6640    0.0092 H   0  0  0  0  0  0  0  0  0  0  0  0
    3.5851   -2.1674    1.1924 H   0  0  0  0  0  0  0  0  0  0  0  0
    3.6062   -0.6740    2.1041 H   0  0  0  0  0  0  0  0  0  0  0  0
    4.7764   -3.0715   -0.3401 H   0  0  0  0  0  0  0  0  0  0  0  0
    6.3660   -3.3462   -0.7469 H   0  0  0  0  0  0  0  0  0  0  0  0
    7.8469   -2.9089    1.0844 H   0  0  0  0  0  0  0  0  0  0  0  0
    7.7531   -1.2845    1.4322 H   0  0  0  0  0  0  0  0  0  0  0  0
  1  2  1  0
  2  3  1  0
  3  4  2  0
  4  5  1  0
  5  6  2  0
  6  7  1  0
  7  8  2  0
  8  9  1  0
  7 10  1  0
 10 11  1  0
  5 12  1  0
 12 13  2  0
 12 14  1  0
 14 15  1  0
 15 16  1  0
 16 17  1  0
 17 18  1  0
 18 19  1  0
 19 20  2  3
 20 21  1  0
 20 22  1  0
  8  3  1  0
  1 23  1  0
  1 24  1  0
  1 25  1  0
  4 26  1  0
  6 27  1  0
  9 28  1  0
 11 29  1  0
 11 30  1  0
 11 31  1  0
 15 32  1  0
 15 33  1  0
 16 34  1  0
 16 35  1  0
 17 36  1  0
 17 37  1  0
 18 38  1  0
 18 39  1  0
 21 40  1  0
 21 41  1  0
 22 42  1  0
 22 43  1  0
M  END
$$$$
leonurine.sdf
     RDKit          3D

 43 43  0  0  0  0  0  0  0  0999 V2000
   -2.2455    3.8018   -1.6749 C   0  0  0  0  0  0  0  0  0  0  0  0
   -3.3135    3.2810   -0.8912 O   0  0  0  0  0  0  0  0  0  0  0  0
   -3.2312    1.9593   -0.5302 C   0  0  0  0  0  0  0  0  0  0  0  0
   -2.1949    1.0860   -0.8532 C   0  0  0  0  0  0  0  0  0  0  0  0
   -2.2419   -0.2472   -0.4139 C   0  0  0  0  0  0  0  0  0  0  0  0
   -3.3304   -0.7024    0.3504 C   0  0  0  0  0  0  0  0  0  0  0  0
   -4.3748    0.1618    0.6807 C   0  0  0  0  0  0  0  0  0  0  0  0
   -4.3094    1.4871    0.2337 C   0  0  0  0  0  0  0  0  0  0  0  0
   -5.3256    2.3587    0.5468 O   0  0  0  0  0  0  0  0  0  0  0  0
   -5.4766   -0.1791    1.4181 O   0  0  0  0  0  0  0  0  0  0  0  0
   -5.5743   -1.5219    1.8719 C   0  0  0  0  0  0  0  0  0  0  0  0
   -1.1595   -1.2221   -0.7256 C   0  0  0  0  0  0  0  0  0  0  0  0
   -1.1669   -2.3793   -0.3381 O   0  0  0  0  0  0  0  0  0  0  0  0
   -0.1947   -0.6366   -1.4760 O   0  0  0  0  0  0  0  0  0  0  0  0
    0.9204   -1.4709   -1.8284 C   0  0  0  0  0  0  0  0  0  0  0  0
    1.9712   -1.4865   -0.7209 C   0  0  0  0  0  0  0  0  0  0  0  0
    2.4930   -0.0810   -0.4000 C   0  0  0  0  0  0  0  0  0  0  0  0
    3.5823   -0.0993    0.6724 C   0  0  0  0  0  0  0  0  0  0  0  0
    4.7770   -0.7335    0.1232 N   0  0  0  0  0  0  0  0  0  0  0  0
    5.8148   -0.8137    0.8651 C   0  0  0  0  0  0  0  0  0  0  0  0
    6.0102   -0.4001    2.1364 N   0  0  0  0  0  0  0  0  0  0  0  0
    6.9440   -1.3762    0.3845 N   0  0  0  0  0  0  0  0  0  0  0  0
   -1.2978    3.7578   -1.1283 H   0  0  0  0  0  0  0  0  0  0  0  0
   -2.1735    3.2840   -2.6370 H   0  0  0  0  0  0  0  0  0  0  0  0
   -2.4638    4.8545   -1.8787 H   0  0  0  0  0  0  0  0  0  0  0  0
   -1.3473    1.4213   -1.4407 H   0  0  0  0  0  0  0  0  0  0  0  0
   -3.3357   -1.7389    0.6755 H   0  0  0  0  0  0  0  0  0  0  0  0
   -5.0746    3.2079    0.1377 H   0  0  0  0  0  0  0  0  0  0  0  0
   -5.6168   -2.2213    1.0305 H   0  0  0  0  0  0  0  0  0  0  0  0
   -4.7525   -1.7694    2.5519 H   0  0  0  0  0  0  0  0  0  0  0  0
   -6.5094   -1.6186    2.4319 H   0  0  0  0  0  0  0  0  0  0  0  0
    0.5862   -2.4875   -2.0671 H   0  0  0  0  0  0  0  0  0  0  0  0
    1.3505   -1.0568   -2.7469 H   0  0  0  0  0  0  0  0  0  0  0  0
    1.5399   -1.9173    0.1903 H   0  0  0  0  0  0  0  0  0  0  0  0
    2.7965   -2.1369   -1.0314 H   0  0  0  0  0  0  0  0  0  0  0  0
    2.8807    0.3864   -1.3135 H   0  0  0  0  0  0  0  0  0  0  0  0
    1.6654    0.5432   -0.0426 H   0  0  0  0  0  0  0  0  0  0  0  0
    3.8039    0.9349    0.9618 H   0  0  0  0  0  0  0  0  0  0  0  0
    3.2209   -0.6394    1.5554 H   0  0  0  0  0  0  0  0  0  0  0  0
    5.1573   -0.1987    2.6421 H   0  0  0  0  0  0  0  0  0  0  0  0
    6.5918   -1.0455    2.6589 H   0  0  0  0  0  0  0  0  0  0  0  0
    6.8435   -1.5386   -0.6132 H   0  0  0  0  0  0  0  0  0  0  0  0
    7.7612   -0.8069    0.5676 H   0  0  0  0  0  0  0  0  0  0  0  0
  1  2  1  0
  2  3  1  0
  3  4  2  0
  4  5  1  0
  5  6  2  0
  6  7  1  0
  7  8  2  0
  8  9  1  0
  7 10  1  0
 10 11  1  0
  5 12  1  0
 12 13  2  0
 12 14  1  0
 14 15  1  0
 15 16  1  0
 16 17  1  0
 17 18  1  0
 18 19  1  0
 19 20  2  3
 20 21  1  0
 20 22  1  0
  8  3  1  0
  1 23  1  0
  1 24  1  0
  1 25  1  0
  4 26  1  0
  6 27  1  0
  9 28  1  0
 11 29  1  0
 11 30  1  0
 11 31  1  0
 15 32  1  0
 15 33  1  0
 16 34  1  0
 16 35  1  0
 17 36  1  0
 17 37  1  0
 18 38  1  0
 18 39  1  0
 21 40  1  0
 21 41  1  0
 22 42  1  0
 22 43  1  0
M  END
$$$$
leonurine.sdf
     RDKit          3D

 43 43  0  0  0  0  0  0  0  0999 V2000
   -2.2530    3.7425   -1.4403 C   0  0  0  0  0  0  0  0  0  0  0  0
   -3.5501    3.2232   -1.1687 O   0  0  0  0  0  0  0  0  0  0  0  0
   -3.6143    1.9559   -0.6454 C   0  0  0  0  0  0  0  0  0  0  0  0
   -2.5273    1.1330   -0.3584 C   0  0  0  0  0  0  0  0  0  0  0  0
   -2.7427   -0.1472    0.1774 C   0  0  0  0  0  0  0  0  0  0  0  0
   -4.0503   -0.6002    0.4249 C   0  0  0  0  0  0  0  0  0  0  0  0
   -5.1475    0.2139    0.1419 C   0  0  0  0  0  0  0  0  0  0  0  0
   -4.9124    1.4867   -0.3919 C   0  0  0  0  0  0  0  0  0  0  0  0
   -5.9768    2.3080   -0.6794 O   0  0  0  0  0  0  0  0  0  0  0  0
   -6.4570   -0.1297    0.3445 O   0  0  0  0  0  0  0  0  0  0  0  0
   -6.7232   -1.4160    0.8858 C   0  0  0  0  0  0  0  0  0  0  0  0
   -1.6185   -1.0685    0.5032 C   0  0  0  0  0  0  0  0  0  0  0  0
   -1.7770   -2.1830    0.9749 O   0  0  0  0  0  0  0  0  0  0  0  0
   -0.4264   -0.4957    0.2035 O   0  0  0  0  0  0  0  0  0  0  0  0
    0.7120   -1.3213    0.4891 C   0  0  0  0  0  0  0  0  0  0  0  0
    1.9638   -0.5440    0.0991 C   0  0  0  0  0  0  0  0  0  0  0  0
    3.2314   -1.3482    0.3710 C   0  0  0  0  0  0  0  0  0  0  0  0
    4.4846   -0.5675   -0.0210 C   0  0  0  0  0  0  0  0  0  0  0  0
    5.6458   -1.4019    0.2684 N   0  0  0  0  0  0  0  0  0  0  0  0
    6.8100   -0.9062    0.0885 C   0  0  0  0  0  0  0  0  0  0  0  0
    7.9060   -1.6432    0.3681 N   0  0  0  0  0  0  0  0  0  0  0  0
    7.1759    0.3153   -0.3577 N   0  0  0  0  0  0  0  0  0  0  0  0
   -1.6609    3.8237   -0.5229 H   0  0  0  0  0  0  0  0  0  0  0  0
   -2.3759    4.7506   -1.8477 H   0  0  0  0  0  0  0  0  0  0  0  0
   -1.7368    3.1390   -2.1941 H   0  0  0  0  0  0  0  0  0  0  0  0
   -1.5123    1.4668   -0.5429 H   0  0  0  0  0  0  0  0  0  0  0  0
   -4.1824   -1.5954    0.8400 H   0  0  0  0  0  0  0  0  0  0  0  0
   -5.5845    3.1275   -1.0342 H   0  0  0  0  0  0  0  0  0  0  0  0
   -6.2908   -1.5206    1.8864 H   0  0  0  0  0  0  0  0  0  0  0  0
   -6.3692   -2.2071    0.2166 H   0  0  0  0  0  0  0  0  0  0  0  0
   -7.8083   -1.5214    0.9801 H   0  0  0  0  0  0  0  0  0  0  0  0
    0.7321   -1.5580    1.5594 H   0  0  0  0  0  0  0  0  0  0  0  0
    0.6462   -2.2483   -0.0924 H   0  0  0  0  0  0  0  0  0  0  0  0
    1.9061   -0.2719   -0.9623 H   0  0  0  0  0  0  0  0  0  0  0  0
    1.9890    0.4041    0.6508 H   0  0  0  0  0  0  0  0  0  0  0  0
    3.2822   -1.6128    1.4348 H   0  0  0  0  0  0  0  0  0  0  0  0
    3.1986   -2.2929   -0.1861 H   0  0  0  0  0  0  0  0  0  0  0  0
    4.5262    0.3674    0.5508 H   0  0  0  0  0  0  0  0  0  0  0  0
    4.4454   -0.3265   -1.0900 H   0  0  0  0  0  0  0  0  0  0  0  0
    8.5762   -1.1316    0.9291 H   0  0  0  0  0  0  0  0  0  0  0  0
    7.6266   -2.4954    0.8457 H   0  0  0  0  0  0  0  0  0  0  0  0
    8.0035    0.2721   -0.9416 H   0  0  0  0  0  0  0  0  0  0  0  0
    6.4357    0.8246   -0.8224 H   0  0  0  0  0  0  0  0  0  0  0  0
  1  2  1  0
  2  3  1  0
  3  4  2  0
  4  5  1  0
  5  6  2  0
  6  7  1  0
  7  8  2  0
  8  9  1  0
  7 10  1  0
 10 11  1  0
  5 12  1  0
 12 13  2  0
 12 14  1  0
 14 15  1  0
 15 16  1  0
 16 17  1  0
 17 18  1  0
 18 19  1  0
 19 20  2  3
 20 21  1  0
 20 22  1  0
  8  3  1  0
  1 23  1  0
  1 24  1  0
  1 25  1  0
  4 26  1  0
  6 27  1  0
  9 28  1  0
 11 29  1  0
 11 30  1  0
 11 31  1  0
 15 32  1  0
 15 33  1  0
 16 34  1  0
 16 35  1  0
 17 36  1  0
 17 37  1  0
 18 38  1  0
 18 39  1  0
 21 40  1  0
 21 41  1  0
 22 42  1  0
 22 43  1  0
M  END
$$$$
leonurine.sdf
     RDKit          3D

 43 43  0  0  0  0  0  0  0  0999 V2000
   -2.5362    3.8650   -1.5397 C   0  0  0  0  0  0  0  0  0  0  0  0
   -3.7378    3.2682   -1.0647 O   0  0  0  0  0  0  0  0  0  0  0  0
   -3.6439    1.9908   -0.5713 C   0  0  0  0  0  0  0  0  0  0  0  0
   -2.4795    1.2306   -0.4843 C   0  0  0  0  0  0  0  0  0  0  0  0
   -2.5318   -0.0690    0.0453 C   0  0  0  0  0  0  0  0  0  0  0  0
   -3.7543   -0.6051    0.4863 C   0  0  0  0  0  0  0  0  0  0  0  0
   -4.9274    0.1457    0.4052 C   0  0  0  0  0  0  0  0  0  0  0  0
   -4.8547    1.4397   -0.1246 C   0  0  0  0  0  0  0  0  0  0  0  0
   -5.9968    2.1998   -0.2150 O   0  0  0  0  0  0  0  0  0  0  0  0
   -6.1651   -0.2801    0.8062 O   0  0  0  0  0  0  0  0  0  0  0  0
   -6.2679   -1.5927    1.3401 C   0  0  0  0  0  0  0  0  0  0  0  0
   -1.3190   -0.9258    0.1617 C   0  0  0  0  0  0  0  0  0  0  0  0
   -1.3401   -2.0675    0.5925 O   0  0  0  0  0  0  0  0  0  0  0  0
   -0.2181   -0.2607   -0.2683 O   0  0  0  0  0  0  0  0  0  0  0  0
    0.9976   -1.0213   -0.1933 C   0  0  0  0  0  0  0  0  0  0  0  0
    2.1318   -0.1330   -0.6946 C   0  0  0  0  0  0  0  0  0  0  0  0
    3.4809   -0.8452   -0.7719 C   0  0  0  0  0  0  0  0  0  0  0  0
    4.0221   -1.2684    0.5925 C   0  0  0  0  0  0  0  0  0  0  0  0
    5.3304   -1.8918    0.4222 N   0  0  0  0  0  0  0  0  0  0  0  0
    6.3939   -1.1952    0.5391 C   0  0  0  0  0  0  0  0  0  0  0  0
    6.5555    0.1243    0.7785 N   0  0  0  0  0  0  0  0  0  0  0  0
    7.6002   -1.7897    0.4175 N   0  0  0  0  0  0  0  0  0  0  0  0
   -2.7817    4.8689   -1.8991 H   0  0  0  0  0  0  0  0  0  0  0  0
   -2.1221    3.3013   -2.3821 H   0  0  0  0  0  0  0  0  0  0  0  0
   -1.8028    3.9697   -0.7333 H   0  0  0  0  0  0  0  0  0  0  0  0
   -1.5288    1.6282   -0.8214 H   0  0  0  0  0  0  0  0  0  0  0  0
   -3.7605   -1.6137    0.8901 H   0  0  0  0  0  0  0  0  0  0  0  0
   -5.7148    3.0472   -0.6071 H   0  0  0  0  0  0  0  0  0  0  0  0
   -5.6754   -1.6940    2.2554 H   0  0  0  0  0  0  0  0  0  0  0  0
   -7.3161   -1.7662    1.6020 H   0  0  0  0  0  0  0  0  0  0  0  0
   -5.9818   -2.3448    0.5975 H   0  0  0  0  0  0  0  0  0  0  0  0
    1.1703   -1.3178    0.8468 H   0  0  0  0  0  0  0  0  0  0  0  0
    0.9080   -1.9133   -0.8240 H   0  0  0  0  0  0  0  0  0  0  0  0
    2.2093    0.7565   -0.0569 H   0  0  0  0  0  0  0  0  0  0  0  0
    1.8710    0.2441   -1.6918 H   0  0  0  0  0  0  0  0  0  0  0  0
    4.1996   -0.1706   -1.2536 H   0  0  0  0  0  0  0  0  0  0  0  0
    3.3995   -1.7227   -1.4256 H   0  0  0  0  0  0  0  0  0  0  0  0
    3.3601   -2.0146    1.0447 H   0  0  0  0  0  0  0  0  0  0  0  0
    4.0453   -0.4229    1.2896 H   0  0  0  0  0  0  0  0  0  0  0  0
    7.3517    0.5031    0.2784 H   0  0  0  0  0  0  0  0  0  0  0  0
    5.7285    0.6800    0.6043 H   0  0  0  0  0  0  0  0  0  0  0  0
    7.4758   -2.7979    0.3871 H   0  0  0  0  0  0  0  0  0  0  0  0
    8.2252   -1.5393    1.1741 H   0  0  0  0  0  0  0  0  0  0  0  0
  1  2  1  0
  2  3  1  0
  3  4  2  0
  4  5  1  0
  5  6  2  0
  6  7  1  0
  7  8  2  0
  8  9  1  0
  7 10  1  0
 10 11  1  0
  5 12  1  0
 12 13  2  0
 12 14  1  0
 14 15  1  0
 15 16  1  0
 16 17  1  0
 17 18  1  0
 18 19  1  0
 19 20  2  3
 20 21  1  0
 20 22  1  0
  8  3  1  0
  1 23  1  0
  1 24  1  0
  1 25  1  0
  4 26  1  0
  6 27  1  0
  9 28  1  0
 11 29  1  0
 11 30  1  0
 11 31  1  0
 15 32  1  0
 15 33  1  0
 16 34  1  0
 16 35  1  0
 17 36  1  0
 17 37  1  0
 18 38  1  0
 18 39  1  0
 21 40  1  0
 21 41  1  0
 22 42  1  0
 22 43  1  0
M  END
$$$$
leonurine.sdf
     RDKit          3D

 43 43  0  0  0  0  0  0  0  0999 V2000
   -3.8016    4.3691   -1.7213 C   0  0  0  0  0  0  0  0  0  0  0  0
   -4.5548    3.3257   -1.1119 O   0  0  0  0  0  0  0  0  0  0  0  0
   -3.8483    2.2445   -0.6479 C   0  0  0  0  0  0  0  0  0  0  0  0
   -2.4685    2.0760   -0.7217 C   0  0  0  0  0  0  0  0  0  0  0  0
   -1.8731    0.9139   -0.2038 C   0  0  0  0  0  0  0  0  0  0  0  0
   -2.6666   -0.0829    0.3899 C   0  0  0  0  0  0  0  0  0  0  0  0
   -4.0518    0.0734    0.4701 C   0  0  0  0  0  0  0  0  0  0  0  0
   -4.6250    1.2399   -0.0522 C   0  0  0  0  0  0  0  0  0  0  0  0
   -5.9871    1.4149    0.0160 O   0  0  0  0  0  0  0  0  0  0  0  0
   -4.9161   -0.8319    1.0254 O   0  0  0  0  0  0  0  0  0  0  0  0
   -4.3657   -2.0254    1.5636 C   0  0  0  0  0  0  0  0  0  0  0  0
   -0.3926    0.7894   -0.3126 C   0  0  0  0  0  0  0  0  0  0  0  0
    0.3094    1.6352   -0.8432 O   0  0  0  0  0  0  0  0  0  0  0  0
    0.0314   -0.3698    0.2464 O   0  0  0  0  0  0  0  0  0  0  0  0
    1.4527   -0.6044    0.2170 C   0  0  0  0  0  0  0  0  0  0  0  0
    1.8482   -1.2148   -1.1243 C   0  0  0  0  0  0  0  0  0  0  0  0
    3.2607   -1.8034   -1.1631 C   0  0  0  0  0  0  0  0  0  0  0  0
    4.3743   -0.7975   -0.8769 C   0  0  0  0  0  0  0  0  0  0  0  0
    4.4677   -0.5179    0.5524 N   0  0  0  0  0  0  0  0  0  0  0  0
    5.1730   -1.2599    1.3149 C   0  0  0  0  0  0  0  0  0  0  0  0
    5.2450   -0.9832    2.6345 N   0  0  0  0  0  0  0  0  0  0  0  0
    5.9007   -2.3640    1.0403 N   0  0  0  0  0  0  0  0  0  0  0  0
   -3.2837    4.0100   -2.6168 H   0  0  0  0  0  0  0  0  0  0  0  0
   -4.5036    5.1486   -2.0327 H   0  0  0  0  0  0  0  0  0  0  0  0
   -3.1006    4.8169   -1.0093 H   0  0  0  0  0  0  0  0  0  0  0  0
   -1.8297    2.8286   -1.1748 H   0  0  0  0  0  0  0  0  0  0  0  0
   -2.1878   -0.9731    0.7831 H   0  0  0  0  0  0  0  0  0  0  0  0
   -6.1575    2.2805   -0.4005 H   0  0  0  0  0  0  0  0  0  0  0  0
   -3.6843   -1.8074    2.3925 H   0  0  0  0  0  0  0  0  0  0  0  0
   -5.1905   -2.6252    1.9605 H   0  0  0  0  0  0  0  0  0  0  0  0
   -3.8686   -2.6162    0.7872 H   0  0  0  0  0  0  0  0  0  0  0  0
    1.9921    0.3251    0.4285 H   0  0  0  0  0  0  0  0  0  0  0  0
    1.6670   -1.3048    1.0311 H   0  0  0  0  0  0  0  0  0  0  0  0
    1.1321   -2.0057   -1.3821 H   0  0  0  0  0  0  0  0  0  0  0  0
    1.7433   -0.4606   -1.9138 H   0  0  0  0  0  0  0  0  0  0  0  0
    3.4191   -2.2099   -2.1699 H   0  0  0  0  0  0  0  0  0  0  0  0
    3.3215   -2.6519   -0.4712 H   0  0  0  0  0  0  0  0  0  0  0  0
    4.1760    0.1426   -1.4046 H   0  0  0  0  0  0  0  0  0  0  0  0
    5.3261   -1.1632   -1.2782 H   0  0  0  0  0  0  0  0  0  0  0  0
    4.5798   -0.2518    2.8679 H   0  0  0  0  0  0  0  0  0  0  0  0
    5.0883   -1.8023    3.2085 H   0  0  0  0  0  0  0  0  0  0  0  0
    6.0903   -2.5113    0.0581 H   0  0  0  0  0  0  0  0  0  0  0  0
    6.7587   -2.3959    1.5795 H   0  0  0  0  0  0  0  0  0  0  0  0
  1  2  1  0
  2  3  1  0
  3  4  2  0
  4  5  1  0
  5  6  2  0
  6  7  1  0
  7  8  2  0
  8  9  1  0
  7 10  1  0
 10 11  1  0
  5 12  1  0
 12 13  2  0
 12 14  1  0
 14 15  1  0
 15 16  1  0
 16 17  1  0
 17 18  1  0
 18 19  1  0
 19 20  2  3
 20 21  1  0
 20 22  1  0
  8  3  1  0
  1 23  1  0
  1 24  1  0
  1 25  1  0
  4 26  1  0
  6 27  1  0
  9 28  1  0
 11 29  1  0
 11 30  1  0
 11 31  1  0
 15 32  1  0
 15 33  1  0
 16 34  1  0
 16 35  1  0
 17 36  1  0
 17 37  1  0
 18 38  1  0
 18 39  1  0
 21 40  1  0
 21 41  1  0
 22 42  1  0
 22 43  1  0
M  END
$$$$
leonurine.sdf
     RDKit          3D

 43 43  0  0  0  0  0  0  0  0999 V2000
   -3.1455    4.4393   -1.6489 C   0  0  0  0  0  0  0  0  0  0  0  0
   -4.0531    3.3514   -1.5076 O   0  0  0  0  0  0  0  0  0  0  0  0
   -3.5775    2.2285   -0.8782 C   0  0  0  0  0  0  0  0  0  0  0  0
   -2.2979    2.0636   -0.3555 C   0  0  0  0  0  0  0  0  0  0  0  0
   -1.9428    0.8556    0.2671 C   0  0  0  0  0  0  0  0  0  0  0  0
   -2.8754   -0.1917    0.3630 C   0  0  0  0  0  0  0  0  0  0  0  0
   -4.1622   -0.0395   -0.1575 C   0  0  0  0  0  0  0  0  0  0  0  0
   -4.4965    1.1742   -0.7718 C   0  0  0  0  0  0  0  0  0  0  0  0
   -5.7583    1.3466   -1.2898 O   0  0  0  0  0  0  0  0  0  0  0  0
   -5.1460   -0.9909   -0.1173 O   0  0  0  0  0  0  0  0  0  0  0  0
   -4.8277   -2.2450    0.4686 C   0  0  0  0  0  0  0  0  0  0  0  0
   -0.5601    0.7385    0.8089 C   0  0  0  0  0  0  0  0  0  0  0  0
    0.2671    1.6324    0.7250 O   0  0  0  0  0  0  0  0  0  0  0  0
   -0.3745   -0.4715    1.3907 O   0  0  0  0  0  0  0  0  0  0  0  0
    0.9362   -0.7166    1.9253 C   0  0  0  0  0  0  0  0  0  0  0  0
    1.8050   -1.3853    0.8654 C   0  0  0  0  0  0  0  0  0  0  0  0
    3.2046   -1.6907    1.4007 C   0  0  0  0  0  0  0  0  0  0  0  0
    4.0640   -2.4563    0.3958 C   0  0  0  0  0  0  0  0  0  0  0  0
    4.2736   -1.6665   -0.8123 N   0  0  0  0  0  0  0  0  0  0  0  0
    5.2836   -0.8915   -0.9061 C   0  0  0  0  0  0  0  0  0  0  0  0
    6.2640   -0.6182   -0.0179 N   0  0  0  0  0  0  0  0  0  0  0  0
    5.4862   -0.1897   -2.0417 N   0  0  0  0  0  0  0  0  0  0  0  0
   -3.6699    5.2452   -2.1713 H   0  0  0  0  0  0  0  0  0  0  0  0
   -2.2807    4.1551   -2.2574 H   0  0  0  0  0  0  0  0  0  0  0  0
   -2.8349    4.8226   -0.6714 H   0  0  0  0  0  0  0  0  0  0  0  0
   -1.5555    2.8541   -0.4162 H   0  0  0  0  0  0  0  0  0  0  0  0
   -2.5814   -1.1171    0.8460 H   0  0  0  0  0  0  0  0  0  0  0  0
   -5.7636    2.2480   -1.6630 H   0  0  0  0  0  0  0  0  0  0  0  0
   -4.5795   -2.1330    1.5291 H   0  0  0  0  0  0  0  0  0  0  0  0
   -4.0193   -2.7427   -0.0770 H   0  0  0  0  0  0  0  0  0  0  0  0
   -5.7154   -2.8812    0.4006 H   0  0  0  0  0  0  0  0  0  0  0  0
    1.3940    0.2044    2.3054 H   0  0  0  0  0  0  0  0  0  0  0  0
    0.8075   -1.3861    2.7829 H   0  0  0  0  0  0  0  0  0  0  0  0
    1.3161   -2.3081    0.5292 H   0  0  0  0  0  0  0  0  0  0  0  0
    1.8651   -0.7380   -0.0175 H   0  0  0  0  0  0  0  0  0  0  0  0
    3.6998   -0.7531    1.6802 H   0  0  0  0  0  0  0  0  0  0  0  0
    3.1198   -2.2927    2.3135 H   0  0  0  0  0  0  0  0  0  0  0  0
    3.5593   -3.3877    0.1135 H   0  0  0  0  0  0  0  0  0  0  0  0
    5.0096   -2.7607    0.8595 H   0  0  0  0  0  0  0  0  0  0  0  0
    6.5471    0.3544   -0.0607 H   0  0  0  0  0  0  0  0  0  0  0  0
    6.0425   -0.8809    0.9333 H   0  0  0  0  0  0  0  0  0  0  0  0
    6.4383   -0.2728   -2.3760 H   0  0  0  0  0  0  0  0  0  0  0  0
    4.8344   -0.5064   -2.7539 H   0  0  0  0  0  0  0  0  0  0  0  0
  1  2  1  0
  2  3  1  0
  3  4  2  0
  4  5  1  0
  5  6  2  0
  6  7  1  0
  7  8  2  0
  8  9  1  0
  7 10  1  0
 10 11  1  0
  5 12  1  0
 12 13  2  0
 12 14  1  0
 14 15  1  0
 15 16  1  0
 16 17  1  0
 17 18  1  0
 18 19  1  0
 19 20  2  3
 20 21  1  0
 20 22  1  0
  8  3  1  0
  1 23  1  0
  1 24  1  0
  1 25  1  0
  4 26  1  0
  6 27  1  0
  9 28  1  0
 11 29  1  0
 11 30  1  0
 11 31  1  0
 15 32  1  0
 15 33  1  0
 16 34  1  0
 16 35  1  0
 17 36  1  0
 17 37  1  0
 18 38  1  0
 18 39  1  0
 21 40  1  0
 21 41  1  0
 22 42  1  0
 22 43  1  0
M  END
$$$$
leonurine.sdf
     RDKit          3D

 43 43  0  0  0  0  0  0  0  0999 V2000
   -2.6822    4.1167   -1.3532 C   0  0  0  0  0  0  0  0  0  0  0  0
   -3.8314    3.2919   -1.2266 O   0  0  0  0  0  0  0  0  0  0  0  0
   -3.6688    2.0550   -0.6623 C   0  0  0  0  0  0  0  0  0  0  0  0
   -2.4541    1.5269   -0.2204 C   0  0  0  0  0  0  0  0  0  0  0  0
   -2.4035    0.2407    0.3443 C   0  0  0  0  0  0  0  0  0  0  0  0
   -3.5755   -0.5234    0.4693 C   0  0  0  0  0  0  0  0  0  0  0  0
   -4.7929   -0.0087    0.0323 C   0  0  0  0  0  0  0  0  0  0  0  0
   -4.8253    1.2759   -0.5299 C   0  0  0  0  0  0  0  0  0  0  0  0
   -6.0318    1.7758   -0.9594 O   0  0  0  0  0  0  0  0  0  0  0  0
   -6.0067   -0.6457    0.0942 O   0  0  0  0  0  0  0  0  0  0  0  0
   -6.0179   -1.9497    0.6658 C   0  0  0  0  0  0  0  0  0  0  0  0
   -1.1307   -0.3637    0.8271 C   0  0  0  0  0  0  0  0  0  0  0  0
   -1.0663   -1.4754    1.3272 O   0  0  0  0  0  0  0  0  0  0  0  0
   -0.0902    0.4811    0.6240 O   0  0  0  0  0  0  0  0  0  0  0  0
    1.1966    0.0089    1.0595 C   0  0  0  0  0  0  0  0  0  0  0  0
    1.8524   -0.8032   -0.0543 C   0  0  0  0  0  0  0  0  0  0  0  0
    3.2237   -1.3602    0.3250 C   0  0  0  0  0  0  0  0  0  0  0  0
    4.2842   -0.2763    0.5101 C   0  0  0  0  0  0  0  0  0  0  0  0
    5.5642   -0.8959    0.8378 N   0  0  0  0  0  0  0  0  0  0  0  0
    6.3943   -1.1798   -0.0900 C   0  0  0  0  0  0  0  0  0  0  0  0
    6.2954   -1.0326   -1.4292 N   0  0  0  0  0  0  0  0  0  0  0  0
    7.5917   -1.7190    0.2244 N   0  0  0  0  0  0  0  0  0  0  0  0
   -2.9962    5.0610   -1.8083 H   0  0  0  0  0  0  0  0  0  0  0  0
   -1.9395    3.6594   -2.0151 H   0  0  0  0  0  0  0  0  0  0  0  0
   -2.2510    4.3469   -0.3734 H   0  0  0  0  0  0  0  0  0  0  0  0
   -1.5384    2.1013   -0.3080 H   0  0  0  0  0  0  0  0  0  0  0  0
   -3.5056   -1.5137    0.9100 H   0  0  0  0  0  0  0  0  0  0  0  0
   -6.6845    1.0758   -0.7700 H   0  0  0  0  0  0  0  0  0  0  0  0
   -5.4076   -2.6429    0.0777 H   0  0  0  0  0  0  0  0  0  0  0  0
   -7.0495   -2.3140    0.6448 H   0  0  0  0  0  0  0  0  0  0  0  0
   -5.6946   -1.9245    1.7117 H   0  0  0  0  0  0  0  0  0  0  0  0
    1.7883    0.9008    1.2866 H   0  0  0  0  0  0  0  0  0  0  0  0
    1.1116   -0.5669    1.9887 H   0  0  0  0  0  0  0  0  0  0  0  0
    1.9292   -0.1885   -0.9598 H   0  0  0  0  0  0  0  0  0  0  0  0
    1.1957   -1.6394   -0.3243 H   0  0  0  0  0  0  0  0  0  0  0  0
    3.1411   -1.9597    1.2401 H   0  0  0  0  0  0  0  0  0  0  0  0
    3.5459   -2.0503   -0.4647 H   0  0  0  0  0  0  0  0  0  0  0  0
    4.0137    0.3760    1.3472 H   0  0  0  0  0  0  0  0  0  0  0  0
    4.3458    0.3730   -0.3709 H   0  0  0  0  0  0  0  0  0  0  0  0
    5.3482   -0.9058   -1.7609 H   0  0  0  0  0  0  0  0  0  0  0  0
    6.7457   -1.7936   -1.9250 H   0  0  0  0  0  0  0  0  0  0  0  0
    7.7200   -1.6897    1.2319 H   0  0  0  0  0  0  0  0  0  0  0  0
    8.3567   -1.2443   -0.2392 H   0  0  0  0  0  0  0  0  0  0  0  0
  1  2  1  0
  2  3  1  0
  3  4  2  0
  4  5  1  0
  5  6  2  0
  6  7  1  0
  7  8  2  0
  8  9  1  0
  7 10  1  0
 10 11  1  0
  5 12  1  0
 12 13  2  0
 12 14  1  0
 14 15  1  0
 15 16  1  0
 16 17  1  0
 17 18  1  0
 18 19  1  0
 19 20  2  3
 20 21  1  0
 20 22  1  0
  8  3  1  0
  1 23  1  0
  1 24  1  0
  1 25  1  0
  4 26  1  0
  6 27  1  0
  9 28  1  0
 11 29  1  0
 11 30  1  0
 11 31  1  0
 15 32  1  0
 15 33  1  0
 16 34  1  0
 16 35  1  0
 17 36  1  0
 17 37  1  0
 18 38  1  0
 18 39  1  0
 21 40  1  0
 21 41  1  0
 22 42  1  0
 22 43  1  0
M  END
$$$$
leonurine.sdf
     RDKit          3D

 43 43  0  0  0  0  0  0  0  0999 V2000
   -3.9403    4.5243   -1.3703 C   0  0  0  0  0  0  0  0  0  0  0  0
   -4.7216    3.4174   -0.9326 O   0  0  0  0  0  0  0  0  0  0  0  0
   -4.0366    2.3055   -0.5115 C   0  0  0  0  0  0  0  0  0  0  0  0
   -2.6523    2.1650   -0.4675 C   0  0  0  0  0  0  0  0  0  0  0  0
   -2.0816    0.9652   -0.0116 C   0  0  0  0  0  0  0  0  0  0  0  0
   -2.9036   -0.0978    0.4007 C   0  0  0  0  0  0  0  0  0  0  0  0
   -4.2935    0.0301    0.3615 C   0  0  0  0  0  0  0  0  0  0  0  0
   -4.8422    1.2353   -0.0954 C   0  0  0  0  0  0  0  0  0  0  0  0
   -6.2082    1.3831   -0.1417 O   0  0  0  0  0  0  0  0  0  0  0  0
   -5.1849   -0.9382    0.7388 O   0  0  0  0  0  0  0  0  0  0  0  0
   -4.6612   -2.1779    1.1928 C   0  0  0  0  0  0  0  0  0  0  0  0
   -0.5953    0.8734    0.0133 C   0  0  0  0  0  0  0  0  0  0  0  0
    0.1380    1.7814   -0.3454 O   0  0  0  0  0  0  0  0  0  0  0  0
   -0.1956   -0.3358    0.4782 O   0  0  0  0  0  0  0  0  0  0  0  0
    1.2251   -0.5425    0.5427 C   0  0  0  0  0  0  0  0  0  0  0  0
    1.7244   -1.1098   -0.7828 C   0  0  0  0  0  0  0  0  0  0  0  0
    3.2442   -1.2545   -0.8531 C   0  0  0  0  0  0  0  0  0  0  0  0
    3.8129   -2.2188    0.1861 C   0  0  0  0  0  0  0  0  0  0  0  0
    5.2303   -2.4458   -0.0786 N   0  0  0  0  0  0  0  0  0  0  0  0
    6.1101   -1.6990    0.4734 C   0  0  0  0  0  0  0  0  0  0  0  0
    7.4169   -1.9646    0.2588 N   0  0  0  0  0  0  0  0  0  0  0  0
    5.9502   -0.6426    1.2940 N   0  0  0  0  0  0  0  0  0  0  0  0
   -3.3180    4.9132   -0.5576 H   0  0  0  0  0  0  0  0  0  0  0  0
   -4.6287    5.3194   -1.6724 H   0  0  0  0  0  0  0  0  0  0  0  0
   -3.3343    4.2587   -2.2427 H   0  0  0  0  0  0  0  0  0  0  0  0
   -1.9922    2.9687   -0.7803 H   0  0  0  0  0  0  0  0  0  0  0  0
   -2.4441   -1.0163    0.7491 H   0  0  0  0  0  0  0  0  0  0  0  0
   -6.3602    2.2831   -0.4862 H   0  0  0  0  0  0  0  0  0  0  0  0
   -5.5060   -2.8272    1.4421 H   0  0  0  0  0  0  0  0  0  0  0  0
   -4.0644   -2.0451    2.1012 H   0  0  0  0  0  0  0  0  0  0  0  0
   -4.0814   -2.6734    0.4071 H   0  0  0  0  0  0  0  0  0  0  0  0
    1.3962   -1.2569    1.3541 H   0  0  0  0  0  0  0  0  0  0  0  0
    1.7480    0.3825    0.8135 H   0  0  0  0  0  0  0  0  0  0  0  0
    1.3946   -0.4621   -1.6045 H   0  0  0  0  0  0  0  0  0  0  0  0
    1.2440   -2.0792   -0.9651 H   0  0  0  0  0  0  0  0  0  0  0  0
    3.7112   -0.2683   -0.7422 H   0  0  0  0  0  0  0  0  0  0  0  0
    3.5117   -1.6079   -1.8571 H   0  0  0  0  0  0  0  0  0  0  0  0
    3.2996   -3.1844    0.1101 H   0  0  0  0  0  0  0  0  0  0  0  0
    3.6391   -1.8632    1.2075 H   0  0  0  0  0  0  0  0  0  0  0  0
    7.5006   -2.7079   -0.4288 H   0  0  0  0  0  0  0  0  0  0  0  0
    7.9681   -1.1657   -0.0191 H   0  0  0  0  0  0  0  0  0  0  0  0
    5.0455   -0.1960    1.3208 H   0  0  0  0  0  0  0  0  0  0  0  0
    6.7358   -0.0260    1.4353 H   0  0  0  0  0  0  0  0  0  0  0  0
  1  2  1  0
  2  3  1  0
  3  4  2  0
  4  5  1  0
  5  6  2  0
  6  7  1  0
  7  8  2  0
  8  9  1  0
  7 10  1  0
 10 11  1  0
  5 12  1  0
 12 13  2  0
 12 14  1  0
 14 15  1  0
 15 16  1  0
 16 17  1  0
 17 18  1  0
 18 19  1  0
 19 20  2  3
 20 21  1  0
 20 22  1  0
  8  3  1  0
  1 23  1  0
  1 24  1  0
  1 25  1  0
  4 26  1  0
  6 27  1  0
  9 28  1  0
 11 29  1  0
 11 30  1  0
 11 31  1  0
 15 32  1  0
 15 33  1  0
 16 34  1  0
 16 35  1  0
 17 36  1  0
 17 37  1  0
 18 38  1  0
 18 39  1  0
 21 40  1  0
 21 41  1  0
 22 42  1  0
 22 43  1  0
M  END
$$$$
leonurine.sdf
     RDKit          3D

 43 43  0  0  0  0  0  0  0  0999 V2000
   -4.2315    3.9741   -2.0137 C   0  0  0  0  0  0  0  0  0  0  0  0
   -4.7407    2.7135   -1.5905 O   0  0  0  0  0  0  0  0  0  0  0  0
   -3.8878    1.9120   -0.8742 C   0  0  0  0  0  0  0  0  0  0  0  0
   -2.5753    2.2187   -0.5261 C   0  0  0  0  0  0  0  0  0  0  0  0
   -1.8109    1.3004    0.2124 C   0  0  0  0  0  0  0  0  0  0  0  0
   -2.3668    0.0704    0.6043 C   0  0  0  0  0  0  0  0  0  0  0  0
   -3.6823   -0.2492    0.2627 C   0  0  0  0  0  0  0  0  0  0  0  0
   -4.4266    0.6798   -0.4757 C   0  0  0  0  0  0  0  0  0  0  0  0
   -5.7235    0.3852   -0.8241 O   0  0  0  0  0  0  0  0  0  0  0  0
   -4.3206   -1.4152    0.5910 O   0  0  0  0  0  0  0  0  0  0  0  0
   -3.6032   -2.3656    1.3648 C   0  0  0  0  0  0  0  0  0  0  0  0
   -0.4119    1.6823    0.5521 C   0  0  0  0  0  0  0  0  0  0  0  0
    0.0818    2.7545    0.2420 O   0  0  0  0  0  0  0  0  0  0  0  0
    0.2062    0.6826    1.2269 O   0  0  0  0  0  0  0  0  0  0  0  0
    1.5741    0.9249    1.5923 C   0  0  0  0  0  0  0  0  0  0  0  0
    2.5232    0.5530    0.4558 C   0  0  0  0  0  0  0  0  0  0  0  0
    2.3847   -0.9177    0.0447 C   0  0  0  0  0  0  0  0  0  0  0  0
    3.3653   -1.3052   -1.0610 C   0  0  0  0  0  0  0  0  0  0  0  0
    4.7383   -1.2299   -0.5715 N   0  0  0  0  0  0  0  0  0  0  0  0
    5.3040   -2.2650   -0.0835 C   0  0  0  0  0  0  0  0  0  0  0  0
    6.5859   -2.1919    0.3348 N   0  0  0  0  0  0  0  0  0  0  0  0
    4.8294   -3.5146    0.1104 N   0  0  0  0  0  0  0  0  0  0  0  0
   -3.3817    3.8481   -2.6926 H   0  0  0  0  0  0  0  0  0  0  0  0
   -3.9652    4.5999   -1.1555 H   0  0  0  0  0  0  0  0  0  0  0  0
   -5.0256    4.4861   -2.5656 H   0  0  0  0  0  0  0  0  0  0  0  0
   -2.1189    3.1611   -0.8147 H   0  0  0  0  0  0  0  0  0  0  0  0
   -1.7603   -0.6249    1.1742 H   0  0  0  0  0  0  0  0  0  0  0  0
   -6.0399    1.1612   -1.3238 H   0  0  0  0  0  0  0  0  0  0  0  0
   -2.7249   -2.7326    0.8236 H   0  0  0  0  0  0  0  0  0  0  0  0
   -4.2640   -3.2193    1.5435 H   0  0  0  0  0  0  0  0  0  0  0  0
   -3.3234   -1.9519    2.3392 H   0  0  0  0  0  0  0  0  0  0  0  0
    1.7178    1.9680    1.8985 H   0  0  0  0  0  0  0  0  0  0  0  0
    1.7833    0.3069    2.4724 H   0  0  0  0  0  0  0  0  0  0  0  0
    3.5499    0.7627    0.7760 H   0  0  0  0  0  0  0  0  0  0  0  0
    2.3169    1.1829   -0.4175 H   0  0  0  0  0  0  0  0  0  0  0  0
    2.5352   -1.5601    0.9206 H   0  0  0  0  0  0  0  0  0  0  0  0
    1.3661   -1.1008   -0.3175 H   0  0  0  0  0  0  0  0  0  0  0  0
    3.1198   -2.2984   -1.4543 H   0  0  0  0  0  0  0  0  0  0  0  0
    3.2620   -0.6172   -1.9081 H   0  0  0  0  0  0  0  0  0  0  0  0
    6.9816   -1.3010    0.0475 H   0  0  0  0  0  0  0  0  0  0  0  0
    7.1466   -2.9539   -0.0268 H   0  0  0  0  0  0  0  0  0  0  0  0
    5.1923   -3.9300    0.9607 H   0  0  0  0  0  0  0  0  0  0  0  0
    3.8207   -3.5836    0.0808 H   0  0  0  0  0  0  0  0  0  0  0  0
  1  2  1  0
  2  3  1  0
  3  4  2  0
  4  5  1  0
  5  6  2  0
  6  7  1  0
  7  8  2  0
  8  9  1  0
  7 10  1  0
 10 11  1  0
  5 12  1  0
 12 13  2  0
 12 14  1  0
 14 15  1  0
 15 16  1  0
 16 17  1  0
 17 18  1  0
 18 19  1  0
 19 20  2  3
 20 21  1  0
 20 22  1  0
  8  3  1  0
  1 23  1  0
  1 24  1  0
  1 25  1  0
  4 26  1  0
  6 27  1  0
  9 28  1  0
 11 29  1  0
 11 30  1  0
 11 31  1  0
 15 32  1  0
 15 33  1  0
 16 34  1  0
 16 35  1  0
 17 36  1  0
 17 37  1  0
 18 38  1  0
 18 39  1  0
 21 40  1  0
 21 41  1  0
 22 42  1  0
 22 43  1  0
M  END
$$$$
leonurine.sdf
     RDKit          3D

 43 43  0  0  0  0  0  0  0  0999 V2000
   -4.2625    4.1540   -2.0176 C   0  0  0  0  0  0  0  0  0  0  0  0
   -4.9497    3.0206   -1.4973 O   0  0  0  0  0  0  0  0  0  0  0  0
   -4.1934    2.0961   -0.8219 C   0  0  0  0  0  0  0  0  0  0  0  0
   -2.8207    2.1657   -0.6012 C   0  0  0  0  0  0  0  0  0  0  0  0
   -2.1700    1.1437    0.1096 C   0  0  0  0  0  0  0  0  0  0  0  0
   -2.9004    0.0482    0.6015 C   0  0  0  0  0  0  0  0  0  0  0  0
   -4.2778   -0.0336    0.3874 C   0  0  0  0  0  0  0  0  0  0  0  0
   -4.9068    0.9957   -0.3246 C   0  0  0  0  0  0  0  0  0  0  0  0
   -6.2622    0.9351   -0.5474 O   0  0  0  0  0  0  0  0  0  0  0  0
   -5.0834   -1.0525    0.8205 O   0  0  0  0  0  0  0  0  0  0  0  0
   -4.4784   -2.1069    1.5546 C   0  0  0  0  0  0  0  0  0  0  0  0
   -0.7002    1.2727    0.3132 C   0  0  0  0  0  0  0  0  0  0  0  0
   -0.0501    2.2222   -0.0937 O   0  0  0  0  0  0  0  0  0  0  0  0
   -0.2130    0.2045    0.9912 O   0  0  0  0  0  0  0  0  0  0  0  0
    1.2005    0.2191    1.2496 C   0  0  0  0  0  0  0  0  0  0  0  0
    1.9516   -0.3860    0.0679 C   0  0  0  0  0  0  0  0  0  0  0  0
    3.4502   -0.4735    0.3430 C   0  0  0  0  0  0  0  0  0  0  0  0
    4.2031   -1.0561   -0.8504 C   0  0  0  0  0  0  0  0  0  0  0  0
    5.6306   -1.0957   -0.5514 N   0  0  0  0  0  0  0  0  0  0  0  0
    6.1586   -2.1574   -0.0786 C   0  0  0  0  0  0  0  0  0  0  0  0
    5.6002   -3.3413    0.2546 N   0  0  0  0  0  0  0  0  0  0  0  0
    7.4871   -2.1945    0.1606 N   0  0  0  0  0  0  0  0  0  0  0  0
   -3.5156    3.8553   -2.7605 H   0  0  0  0  0  0  0  0  0  0  0  0
   -3.8098    4.7437   -1.2137 H   0  0  0  0  0  0  0  0  0  0  0  0
   -4.9987    4.7876   -2.5215 H   0  0  0  0  0  0  0  0  0  0  0  0
   -2.2303    3.0000   -0.9690 H   0  0  0  0  0  0  0  0  0  0  0  0
   -2.3799   -0.7303    1.1484 H   0  0  0  0  0  0  0  0  0  0  0  0
   -6.4780    1.7417   -1.0520 H   0  0  0  0  0  0  0  0  0  0  0  0
   -5.2624   -2.8222    1.8213 H   0  0  0  0  0  0  0  0  0  0  0  0
   -4.0354   -1.7369    2.4851 H   0  0  0  0  0  0  0  0  0  0  0  0
   -3.7377   -2.6367    0.9468 H   0  0  0  0  0  0  0  0  0  0  0  0
    1.5497    1.2328    1.4800 H   0  0  0  0  0  0  0  0  0  0  0  0
    1.3620   -0.3867    2.1479 H   0  0  0  0  0  0  0  0  0  0  0  0
    1.7679    0.2126   -0.8324 H   0  0  0  0  0  0  0  0  0  0  0  0
    1.5467   -1.3828   -0.1470 H   0  0  0  0  0  0  0  0  0  0  0  0
    3.6264   -1.0924    1.2314 H   0  0  0  0  0  0  0  0  0  0  0  0
    3.8446    0.5243    0.5725 H   0  0  0  0  0  0  0  0  0  0  0  0
    3.8034   -2.0371   -1.1318 H   0  0  0  0  0  0  0  0  0  0  0  0
    4.0594   -0.4113   -1.7254 H   0  0  0  0  0  0  0  0  0  0  0  0
    6.0389   -3.7484    1.0727 H   0  0  0  0  0  0  0  0  0  0  0  0
    4.5957   -3.3072    0.3675 H   0  0  0  0  0  0  0  0  0  0  0  0
    7.9193   -3.0244   -0.2270 H   0  0  0  0  0  0  0  0  0  0  0  0
    7.9205   -1.3616   -0.2283 H   0  0  0  0  0  0  0  0  0  0  0  0
  1  2  1  0
  2  3  1  0
  3  4  2  0
  4  5  1  0
  5  6  2  0
  6  7  1  0
  7  8  2  0
  8  9  1  0
  7 10  1  0
 10 11  1  0
  5 12  1  0
 12 13  2  0
 12 14  1  0
 14 15  1  0
 15 16  1  0
 16 17  1  0
 17 18  1  0
 18 19  1  0
 19 20  2  3
 20 21  1  0
 20 22  1  0
  8  3  1  0
  1 23  1  0
  1 24  1  0
  1 25  1  0
  4 26  1  0
  6 27  1  0
  9 28  1  0
 11 29  1  0
 11 30  1  0
 11 31  1  0
 15 32  1  0
 15 33  1  0
 16 34  1  0
 16 35  1  0
 17 36  1  0
 17 37  1  0
 18 38  1  0
 18 39  1  0
 21 40  1  0
 21 41  1  0
 22 42  1  0
 22 43  1  0
M  END
$$$$
leonurine.sdf
     RDKit          3D

 43 43  0  0  0  0  0  0  0  0999 V2000
   -4.6577    3.5957   -1.3141 C   0  0  0  0  0  0  0  0  0  0  0  0
   -4.7631    2.2785   -0.7923 O   0  0  0  0  0  0  0  0  0  0  0  0
   -3.6004    1.5874   -0.5796 C   0  0  0  0  0  0  0  0  0  0  0  0
   -2.3205    2.0615   -0.8710 C   0  0  0  0  0  0  0  0  0  0  0  0
   -1.1956    1.2612   -0.6173 C   0  0  0  0  0  0  0  0  0  0  0  0
   -1.3435   -0.0169   -0.0525 C   0  0  0  0  0  0  0  0  0  0  0  0
   -2.6137   -0.5009    0.2445 C   0  0  0  0  0  0  0  0  0  0  0  0
   -3.7294    0.3058   -0.0266 C   0  0  0  0  0  0  0  0  0  0  0  0
   -4.9804   -0.1829    0.2680 O   0  0  0  0  0  0  0  0  0  0  0  0
   -2.8979   -1.7259    0.7952 O   0  0  0  0  0  0  0  0  0  0  0  0
   -1.7841   -2.5554    1.1158 C   0  0  0  0  0  0  0  0  0  0  0  0
    0.1473    1.8151   -0.9374 C   0  0  0  0  0  0  0  0  0  0  0  0
    0.3700    2.9969   -1.1382 O   0  0  0  0  0  0  0  0  0  0  0  0
    1.0459    0.8076   -0.9690 O   0  0  0  0  0  0  0  0  0  0  0  0
    2.4254    1.1631   -1.1131 C   0  0  0  0  0  0  0  0  0  0  0  0
    3.0363    1.5896    0.2208 C   0  0  0  0  0  0  0  0  0  0  0  0
    2.7480    0.6687    1.4151 C   0  0  0  0  0  0  0  0  0  0  0  0
    3.2804   -0.7578    1.2710 C   0  0  0  0  0  0  0  0  0  0  0  0
    2.3767   -1.5294    0.4248 N   0  0  0  0  0  0  0  0  0  0  0  0
    2.6792   -2.7390    0.1474 C   0  0  0  0  0  0  0  0  0  0  0  0
    1.8794   -3.4591   -0.6680 N   0  0  0  0  0  0  0  0  0  0  0  0
    3.7374   -3.4813    0.5375 N   0  0  0  0  0  0  0  0  0  0  0  0
   -4.0958    4.2462   -0.6357 H   0  0  0  0  0  0  0  0  0  0  0  0
   -5.6696    4.0026   -1.4024 H   0  0  0  0  0  0  0  0  0  0  0  0
   -4.2137    3.5889   -2.3150 H   0  0  0  0  0  0  0  0  0  0  0  0
   -2.1658    3.0478   -1.2984 H   0  0  0  0  0  0  0  0  0  0  0  0
   -0.4567   -0.6084    0.1555 H   0  0  0  0  0  0  0  0  0  0  0  0
   -4.8284   -1.0702    0.6437 H   0  0  0  0  0  0  0  0  0  0  0  0
   -1.2236   -2.8263    0.2151 H   0  0  0  0  0  0  0  0  0  0  0  0
   -2.1729   -3.4787    1.5559 H   0  0  0  0  0  0  0  0  0  0  0  0
   -1.1370   -2.0786    1.8594 H   0  0  0  0  0  0  0  0  0  0  0  0
    2.5442    1.9521   -1.8654 H   0  0  0  0  0  0  0  0  0  0  0  0
    2.9475    0.2840   -1.5046 H   0  0  0  0  0  0  0  0  0  0  0  0
    4.1194    1.7047    0.0956 H   0  0  0  0  0  0  0  0  0  0  0  0
    2.6472    2.5825    0.4790 H   0  0  0  0  0  0  0  0  0  0  0  0
    3.2265    1.1200    2.2937 H   0  0  0  0  0  0  0  0  0  0  0  0
    1.6716    0.6515    1.6249 H   0  0  0  0  0  0  0  0  0  0  0  0
    3.3190   -1.2106    2.2691 H   0  0  0  0  0  0  0  0  0  0  0  0
    4.2962   -0.7388    0.8591 H   0  0  0  0  0  0  0  0  0  0  0  0
    1.2099   -2.8398   -1.1161 H   0  0  0  0  0  0  0  0  0  0  0  0
    2.4086   -3.9623   -1.3705 H   0  0  0  0  0  0  0  0  0  0  0  0
    3.4880   -4.4493    0.7057 H   0  0  0  0  0  0  0  0  0  0  0  0
    4.2456   -3.0999    1.3252 H   0  0  0  0  0  0  0  0  0  0  0  0
  1  2  1  0
  2  3  1  0
  3  4  2  0
  4  5  1  0
  5  6  2  0
  6  7  1  0
  7  8  2  0
  8  9  1  0
  7 10  1  0
 10 11  1  0
  5 12  1  0
 12 13  2  0
 12 14  1  0
 14 15  1  0
 15 16  1  0
 16 17  1  0
 17 18  1  0
 18 19  1  0
 19 20  2  3
 20 21  1  0
 20 22  1  0
  8  3  1  0
  1 23  1  0
  1 24  1  0
  1 25  1  0
  4 26  1  0
  6 27  1  0
  9 28  1  0
 11 29  1  0
 11 30  1  0
 11 31  1  0
 15 32  1  0
 15 33  1  0
 16 34  1  0
 16 35  1  0
 17 36  1  0
 17 37  1  0
 18 38  1  0
 18 39  1  0
 21 40  1  0
 21 41  1  0
 22 42  1  0
 22 43  1  0
M  END
$$$$
leonurine.sdf
     RDKit          3D

 43 43  0  0  0  0  0  0  0  0999 V2000
   -4.6518    3.4139   -2.4185 C   0  0  0  0  0  0  0  0  0  0  0  0
   -5.0066    2.4278   -1.4545 O   0  0  0  0  0  0  0  0  0  0  0  0
   -3.9750    1.8249   -0.7797 C   0  0  0  0  0  0  0  0  0  0  0  0
   -2.6193    2.0899   -0.9517 C   0  0  0  0  0  0  0  0  0  0  0  0
   -1.6654    1.3944   -0.1908 C   0  0  0  0  0  0  0  0  0  0  0  0
   -2.0739    0.4305    0.7472 C   0  0  0  0  0  0  0  0  0  0  0  0
   -3.4305    0.1557    0.9300 C   0  0  0  0  0  0  0  0  0  0  0  0
   -4.3654    0.8594    0.1601 C   0  0  0  0  0  0  0  0  0  0  0  0
   -5.7066    0.6043    0.3229 O   0  0  0  0  0  0  0  0  0  0  0  0
   -3.9366   -0.7606    1.8126 O   0  0  0  0  0  0  0  0  0  0  0  0
   -3.0150   -1.4770    2.6215 C   0  0  0  0  0  0  0  0  0  0  0  0
   -0.2297    1.7183   -0.4193 C   0  0  0  0  0  0  0  0  0  0  0  0
    0.1482    2.5679   -1.2100 O   0  0  0  0  0  0  0  0  0  0  0  0
    0.5642    0.9448    0.3598 O   0  0  0  0  0  0  0  0  0  0  0  0
    1.9697    1.1712    0.1859 C   0  0  0  0  0  0  0  0  0  0  0  0
    2.7395    0.2533    1.1309 C   0  0  0  0  0  0  0  0  0  0  0  0
    2.4252   -1.2398    0.9664 C   0  0  0  0  0  0  0  0  0  0  0  0
    2.6418   -1.7882   -0.4431 C   0  0  0  0  0  0  0  0  0  0  0  0
    4.0007   -1.5132   -0.8957 N   0  0  0  0  0  0  0  0  0  0  0  0
    4.9264   -2.3719   -0.7069 C   0  0  0  0  0  0  0  0  0  0  0  0
    4.8949   -3.5743   -0.0927 N   0  0  0  0  0  0  0  0  0  0  0  0
    6.1733   -2.1219   -1.1609 N   0  0  0  0  0  0  0  0  0  0  0  0
   -4.0494    2.9797   -3.2232 H   0  0  0  0  0  0  0  0  0  0  0  0
   -5.5769    3.7937   -2.8627 H   0  0  0  0  0  0  0  0  0  0  0  0
   -4.1371    4.2580   -1.9478 H   0  0  0  0  0  0  0  0  0  0  0  0
   -2.2732    2.8290   -1.6684 H   0  0  0  0  0  0  0  0  0  0  0  0
   -1.3216   -0.0948    1.3253 H   0  0  0  0  0  0  0  0  0  0  0  0
   -6.1607    1.1986   -0.3036 H   0  0  0  0  0  0  0  0  0  0  0  0
   -2.3465   -2.0909    2.0090 H   0  0  0  0  0  0  0  0  0  0  0  0
   -3.5881   -2.1510    3.2655 H   0  0  0  0  0  0  0  0  0  0  0  0
   -2.4483   -0.8001    3.2692 H   0  0  0  0  0  0  0  0  0  0  0  0
    2.2014    2.2142    0.4321 H   0  0  0  0  0  0  0  0  0  0  0  0
    2.2513    0.9844   -0.8562 H   0  0  0  0  0  0  0  0  0  0  0  0
    2.4929    0.5276    2.1644 H   0  0  0  0  0  0  0  0  0  0  0  0
    3.8144    0.4269    1.0058 H   0  0  0  0  0  0  0  0  0  0  0  0
    3.0518   -1.7980    1.6731 H   0  0  0  0  0  0  0  0  0  0  0  0
    1.3859   -1.4295    1.2609 H   0  0  0  0  0  0  0  0  0  0  0  0
    1.9427   -1.3178   -1.1433 H   0  0  0  0  0  0  0  0  0  0  0  0
    2.4005   -2.8573   -0.4724 H   0  0  0  0  0  0  0  0  0  0  0  0
    5.7510   -3.7618    0.4166 H   0  0  0  0  0  0  0  0  0  0  0  0
    4.0884   -3.7155    0.5012 H   0  0  0  0  0  0  0  0  0  0  0  0
    6.5564   -2.9085   -1.6711 H   0  0  0  0  0  0  0  0  0  0  0  0
    6.1570   -1.2963   -1.7531 H   0  0  0  0  0  0  0  0  0  0  0  0
  1  2  1  0
  2  3  1  0
  3  4  2  0
  4  5  1  0
  5  6  2  0
  6  7  1  0
  7  8  2  0
  8  9  1  0
  7 10  1  0
 10 11  1  0
  5 12  1  0
 12 13  2  0
 12 14  1  0
 14 15  1  0
 15 16  1  0
 16 17  1  0
 17 18  1  0
 18 19  1  0
 19 20  2  3
 20 21  1  0
 20 22  1  0
  8  3  1  0
  1 23  1  0
  1 24  1  0
  1 25  1  0
  4 26  1  0
  6 27  1  0
  9 28  1  0
 11 29  1  0
 11 30  1  0
 11 31  1  0
 15 32  1  0
 15 33  1  0
 16 34  1  0
 16 35  1  0
 17 36  1  0
 17 37  1  0
 18 38  1  0
 18 39  1  0
 21 40  1  0
 21 41  1  0
 22 42  1  0
 22 43  1  0
M  END
$$$$
leonurine.sdf
     RDKit          3D

 43 43  0  0  0  0  0  0  0  0999 V2000
   -1.5119    2.8070   -2.4824 C   0  0  0  0  0  0  0  0  0  0  0  0
   -2.6383    2.8260   -1.6178 O   0  0  0  0  0  0  0  0  0  0  0  0
   -2.7409    1.8301   -0.6839 C   0  0  0  0  0  0  0  0  0  0  0  0
   -1.8048    0.8129   -0.4881 C   0  0  0  0  0  0  0  0  0  0  0  0
   -2.0122   -0.1608    0.5042 C   0  0  0  0  0  0  0  0  0  0  0  0
   -3.1643   -0.1188    1.3065 C   0  0  0  0  0  0  0  0  0  0  0  0
   -4.1048    0.8910    1.1226 C   0  0  0  0  0  0  0  0  0  0  0  0
   -3.8815    1.8553    0.1287 C   0  0  0  0  0  0  0  0  0  0  0  0
   -4.8157    2.8489   -0.0457 O   0  0  0  0  0  0  0  0  0  0  0  0
   -5.2673    1.0498    1.8342 O   0  0  0  0  0  0  0  0  0  0  0  0
   -5.5316    0.0900    2.8522 C   0  0  0  0  0  0  0  0  0  0  0  0
   -1.0399   -1.2622    0.7489 C   0  0  0  0  0  0  0  0  0  0  0  0
   -1.2203   -2.1412    1.5763 O   0  0  0  0  0  0  0  0  0  0  0  0
    0.0419   -1.1304   -0.0562 O   0  0  0  0  0  0  0  0  0  0  0  0
    1.0660   -2.1255    0.0999 C   0  0  0  0  0  0  0  0  0  0  0  0
    2.0213   -1.7617    1.2335 C   0  0  0  0  0  0  0  0  0  0  0  0
    2.6173   -0.3514    1.1378 C   0  0  0  0  0  0  0  0  0  0  0  0
    3.3337   -0.0440   -0.1774 C   0  0  0  0  0  0  0  0  0  0  0  0
    4.3939   -1.0241   -0.3863 N   0  0  0  0  0  0  0  0  0  0  0  0
    5.0731   -0.9624   -1.4672 C   0  0  0  0  0  0  0  0  0  0  0  0
    4.9852   -0.0971   -2.5010 N   0  0  0  0  0  0  0  0  0  0  0  0
    6.0471   -1.8667   -1.7032 N   0  0  0  0  0  0  0  0  0  0  0  0
   -0.5808    2.9307   -1.9196 H   0  0  0  0  0  0  0  0  0  0  0  0
   -1.4914    1.8932   -3.0854 H   0  0  0  0  0  0  0  0  0  0  0  0
   -1.6011    3.6554   -3.1676 H   0  0  0  0  0  0  0  0  0  0  0  0
   -0.9094    0.7620   -1.0978 H   0  0  0  0  0  0  0  0  0  0  0  0
   -3.2975   -0.8851    2.0646 H   0  0  0  0  0  0  0  0  0  0  0  0
   -5.5102    2.6700    0.6158 H   0  0  0  0  0  0  0  0  0  0  0  0
   -6.4850    0.3540    3.3197 H   0  0  0  0  0  0  0  0  0  0  0  0
   -4.7606    0.1171    3.6292 H   0  0  0  0  0  0  0  0  0  0  0  0
   -5.6347   -0.9148    2.4294 H   0  0  0  0  0  0  0  0  0  0  0  0
    0.6248   -3.1159    0.2656 H   0  0  0  0  0  0  0  0  0  0  0  0
    1.6032   -2.1862   -0.8522 H   0  0  0  0  0  0  0  0  0  0  0  0
    2.8247   -2.5063    1.2755 H   0  0  0  0  0  0  0  0  0  0  0  0
    1.4863   -1.8275    2.1887 H   0  0  0  0  0  0  0  0  0  0  0  0
    3.3230   -0.2239    1.9685 H   0  0  0  0  0  0  0  0  0  0  0  0
    1.8247    0.3915    1.2883 H   0  0  0  0  0  0  0  0  0  0  0  0
    2.6172   -0.0534   -1.0066 H   0  0  0  0  0  0  0  0  0  0  0  0
    3.7593    0.9645   -0.1100 H   0  0  0  0  0  0  0  0  0  0  0  0
    5.8970    0.1261   -2.8843 H   0  0  0  0  0  0  0  0  0  0  0  0
    4.4720    0.7485   -2.2883 H   0  0  0  0  0  0  0  0  0  0  0  0
    5.9848   -2.2641   -2.6325 H   0  0  0  0  0  0  0  0  0  0  0  0
    6.0078   -2.6004   -1.0016 H   0  0  0  0  0  0  0  0  0  0  0  0
  1  2  1  0
  2  3  1  0
  3  4  2  0
  4  5  1  0
  5  6  2  0
  6  7  1  0
  7  8  2  0
  8  9  1  0
  7 10  1  0
 10 11  1  0
  5 12  1  0
 12 13  2  0
 12 14  1  0
 14 15  1  0
 15 16  1  0
 16 17  1  0
 17 18  1  0
 18 19  1  0
 19 20  2  3
 20 21  1  0
 20 22  1  0
  8  3  1  0
  1 23  1  0
  1 24  1  0
  1 25  1  0
  4 26  1  0
  6 27  1  0
  9 28  1  0
 11 29  1  0
 11 30  1  0
 11 31  1  0
 15 32  1  0
 15 33  1  0
 16 34  1  0
 16 35  1  0
 17 36  1  0
 17 37  1  0
 18 38  1  0
 18 39  1  0
 21 40  1  0
 21 41  1  0
 22 42  1  0
 22 43  1  0
M  END
$$$$
leonurine.sdf
     RDKit          3D

 43 43  0  0  0  0  0  0  0  0999 V2000
   -1.5048    3.2967   -1.6276 C   0  0  0  0  0  0  0  0  0  0  0  0
   -2.8088    3.0696   -1.1129 O   0  0  0  0  0  0  0  0  0  0  0  0
   -2.9761    2.0275   -0.2407 C   0  0  0  0  0  0  0  0  0  0  0  0
   -1.9651    1.1608    0.1788 C   0  0  0  0  0  0  0  0  0  0  0  0
   -2.2508    0.1209    1.0803 C   0  0  0  0  0  0  0  0  0  0  0  0
   -3.5566   -0.0549    1.5667 C   0  0  0  0  0  0  0  0  0  0  0  0
   -4.5740    0.8020    1.1561 C   0  0  0  0  0  0  0  0  0  0  0  0
   -4.2716    1.8345    0.2560 C   0  0  0  0  0  0  0  0  0  0  0  0
   -5.2827    2.6760   -0.1438 O   0  0  0  0  0  0  0  0  0  0  0  0
   -5.8868    0.7430    1.5511 O   0  0  0  0  0  0  0  0  0  0  0  0
   -6.2353   -0.2930    2.4637 C   0  0  0  0  0  0  0  0  0  0  0  0
   -1.2038   -0.8267    1.5535 C   0  0  0  0  0  0  0  0  0  0  0  0
   -1.4264   -1.7361    2.3369 O   0  0  0  0  0  0  0  0  0  0  0  0
   -0.0043   -0.5322    0.9964 O   0  0  0  0  0  0  0  0  0  0  0  0
    1.0625   -1.4070    1.3884 C   0  0  0  0  0  0  0  0  0  0  0  0
    2.3446   -0.9739    0.6839 C   0  0  0  0  0  0  0  0  0  0  0  0
    2.2403   -1.1153   -0.8394 C   0  0  0  0  0  0  0  0  0  0  0  0
    3.5267   -0.6963   -1.5511 C   0  0  0  0  0  0  0  0  0  0  0  0
    4.5865   -1.6414   -1.2135 N   0  0  0  0  0  0  0  0  0  0  0  0
    5.7636   -1.4161   -1.6577 C   0  0  0  0  0  0  0  0  0  0  0  0
    6.2224   -0.4110   -2.4351 N   0  0  0  0  0  0  0  0  0  0  0  0
    6.7731   -2.2567   -1.3465 N   0  0  0  0  0  0  0  0  0  0  0  0
   -1.5548    4.1609   -2.2970 H   0  0  0  0  0  0  0  0  0  0  0  0
   -1.1576    2.4405   -2.2153 H   0  0  0  0  0  0  0  0  0  0  0  0
   -0.7998    3.5381   -0.8252 H   0  0  0  0  0  0  0  0  0  0  0  0
   -0.9503    1.2792   -0.1852 H   0  0  0  0  0  0  0  0  0  0  0  0
   -3.7469   -0.8673    2.2620 H   0  0  0  0  0  0  0  0  0  0  0  0
   -6.0810    2.3592    0.3191 H   0  0  0  0  0  0  0  0  0  0  0  0
   -7.3050   -0.2041    2.6761 H   0  0  0  0  0  0  0  0  0  0  0  0
   -5.6971   -0.1815    3.4107 H   0  0  0  0  0  0  0  0  0  0  0  0
   -6.0640   -1.2806    2.0230 H   0  0  0  0  0  0  0  0  0  0  0  0
    0.8130   -2.4406    1.1210 H   0  0  0  0  0  0  0  0  0  0  0  0
    1.2047   -1.3372    2.4731 H   0  0  0  0  0  0  0  0  0  0  0  0
    2.5555    0.0744    0.9281 H   0  0  0  0  0  0  0  0  0  0  0  0
    3.1760   -1.5782    1.0635 H   0  0  0  0  0  0  0  0  0  0  0  0
    1.9981   -2.1541   -1.0958 H   0  0  0  0  0  0  0  0  0  0  0  0
    1.4192   -0.4907   -1.2109 H   0  0  0  0  0  0  0  0  0  0  0  0
    3.7964    0.3244   -1.2545 H   0  0  0  0  0  0  0  0  0  0  0  0
    3.3454   -0.7088   -2.6324 H   0  0  0  0  0  0  0  0  0  0  0  0
    5.4961    0.1066   -2.9128 H   0  0  0  0  0  0  0  0  0  0  0  0
    6.9247   -0.7317   -3.0922 H   0  0  0  0  0  0  0  0  0  0  0  0
    6.4590   -2.9166   -0.6408 H   0  0  0  0  0  0  0  0  0  0  0  0
    7.5956   -1.7622   -1.0234 H   0  0  0  0  0  0  0  0  0  0  0  0
  1  2  1  0
  2  3  1  0
  3  4  2  0
  4  5  1  0
  5  6  2  0
  6  7  1  0
  7  8  2  0
  8  9  1  0
  7 10  1  0
 10 11  1  0
  5 12  1  0
 12 13  2  0
 12 14  1  0
 14 15  1  0
 15 16  1  0
 16 17  1  0
 17 18  1  0
 18 19  1  0
 19 20  2  3
 20 21  1  0
 20 22  1  0
  8  3  1  0
  1 23  1  0
  1 24  1  0
  1 25  1  0
  4 26  1  0
  6 27  1  0
  9 28  1  0
 11 29  1  0
 11 30  1  0
 11 31  1  0
 15 32  1  0
 15 33  1  0
 16 34  1  0
 16 35  1  0
 17 36  1  0
 17 37  1  0
 18 38  1  0
 18 39  1  0
 21 40  1  0
 21 41  1  0
 22 42  1  0
 22 43  1  0
M  END
$$$$
leonurine.sdf
     RDKit          3D

 43 43  0  0  0  0  0  0  0  0999 V2000
   -4.8350    4.6358   -0.5037 C   0  0  0  0  0  0  0  0  0  0  0  0
   -5.0586    3.4655    0.2760 O   0  0  0  0  0  0  0  0  0  0  0  0
   -4.0682    2.5158    0.2621 C   0  0  0  0  0  0  0  0  0  0  0  0
   -2.8711    2.5922   -0.4443 C   0  0  0  0  0  0  0  0  0  0  0  0
   -1.9419    1.5418   -0.3679 C   0  0  0  0  0  0  0  0  0  0  0  0
   -2.2150    0.4109    0.4210 C   0  0  0  0  0  0  0  0  0  0  0  0
   -3.4117    0.3218    1.1345 C   0  0  0  0  0  0  0  0  0  0  0  0
   -4.3251    1.3799    1.0441 C   0  0  0  0  0  0  0  0  0  0  0  0
   -5.5100    1.3132    1.7382 O   0  0  0  0  0  0  0  0  0  0  0  0
   -3.7777   -0.7304    1.9306 O   0  0  0  0  0  0  0  0  0  0  0  0
   -2.8718   -1.8180    2.0450 C   0  0  0  0  0  0  0  0  0  0  0  0
   -0.6783    1.6793   -1.1441 C   0  0  0  0  0  0  0  0  0  0  0  0
   -0.4121    2.6570   -1.8249 O   0  0  0  0  0  0  0  0  0  0  0  0
    0.1045    0.5851   -0.9827 O   0  0  0  0  0  0  0  0  0  0  0  0
    1.3521    0.6394   -1.6880 C   0  0  0  0  0  0  0  0  0  0  0  0
    2.1335   -0.6423   -1.4157 C   0  0  0  0  0  0  0  0  0  0  0  0
    2.5032   -0.7880    0.0654 C   0  0  0  0  0  0  0  0  0  0  0  0
    3.3038   -2.0607    0.3420 C   0  0  0  0  0  0  0  0  0  0  0  0
    4.6072   -1.9524   -0.3056 N   0  0  0  0  0  0  0  0  0  0  0  0
    5.4555   -2.8907   -0.1222 C   0  0  0  0  0  0  0  0  0  0  0  0
    5.3506   -4.0307    0.5948 N   0  0  0  0  0  0  0  0  0  0  0  0
    6.6784   -2.8124   -0.6887 N   0  0  0  0  0  0  0  0  0  0  0  0
   -5.7070    5.2863   -0.3860 H   0  0  0  0  0  0  0  0  0  0  0  0
   -3.9582    5.1858   -0.1466 H   0  0  0  0  0  0  0  0  0  0  0  0
   -4.7440    4.3896   -1.5668 H   0  0  0  0  0  0  0  0  0  0  0  0
   -2.6319    3.4533   -1.0615 H   0  0  0  0  0  0  0  0  0  0  0  0
   -1.4838   -0.3888    0.4672 H   0  0  0  0  0  0  0  0  0  0  0  0
   -5.9785    2.1434    1.5305 H   0  0  0  0  0  0  0  0  0  0  0  0
   -2.7089   -2.2999    1.0753 H   0  0  0  0  0  0  0  0  0  0  0  0
   -3.3209   -2.5592    2.7131 H   0  0  0  0  0  0  0  0  0  0  0  0
   -1.9248   -1.4981    2.4920 H   0  0  0  0  0  0  0  0  0  0  0  0
    1.9277    1.5121   -1.3577 H   0  0  0  0  0  0  0  0  0  0  0  0
    1.1547    0.7210   -2.7632 H   0  0  0  0  0  0  0  0  0  0  0  0
    3.0386   -0.6403   -2.0331 H   0  0  0  0  0  0  0  0  0  0  0  0
    1.5276   -1.5061   -1.7152 H   0  0  0  0  0  0  0  0  0  0  0  0
    1.5894   -0.8146    0.6708 H   0  0  0  0  0  0  0  0  0  0  0  0
    3.0796    0.0879    0.3878 H   0  0  0  0  0  0  0  0  0  0  0  0
    3.4255   -2.1654    1.4269 H   0  0  0  0  0  0  0  0  0  0  0  0
    2.7533   -2.9316   -0.0330 H   0  0  0  0  0  0  0  0  0  0  0  0
    5.8230   -4.8066    0.1449 H   0  0  0  0  0  0  0  0  0  0  0  0
    4.4015   -4.2812    0.8392 H   0  0  0  0  0  0  0  0  0  0  0  0
    7.4181   -3.0121   -0.0264 H   0  0  0  0  0  0  0  0  0  0  0  0
    6.8066   -1.8878   -1.0898 H   0  0  0  0  0  0  0  0  0  0  0  0
  1  2  1  0
  2  3  1  0
  3  4  2  0
  4  5  1  0
  5  6  2  0
  6  7  1  0
  7  8  2  0
  8  9  1  0
  7 10  1  0
 10 11  1  0
  5 12  1  0
 12 13  2  0
 12 14  1  0
 14 15  1  0
 15 16  1  0
 16 17  1  0
 17 18  1  0
 18 19  1  0
 19 20  2  3
 20 21  1  0
 20 22  1  0
  8  3  1  0
  1 23  1  0
  1 24  1  0
  1 25  1  0
  4 26  1  0
  6 27  1  0
  9 28  1  0
 11 29  1  0
 11 30  1  0
 11 31  1  0
 15 32  1  0
 15 33  1  0
 16 34  1  0
 16 35  1  0
 17 36  1  0
 17 37  1  0
 18 38  1  0
 18 39  1  0
 21 40  1  0
 21 41  1  0
 22 42  1  0
 22 43  1  0
M  END
$$$$
leonurine.sdf
     RDKit          3D

 43 43  0  0  0  0  0  0  0  0999 V2000
   -2.6186    3.6231   -1.9218 C   0  0  0  0  0  0  0  0  0  0  0  0
   -3.7589    3.1728   -1.2049 O   0  0  0  0  0  0  0  0  0  0  0  0
   -3.5896    2.1393   -0.3229 C   0  0  0  0  0  0  0  0  0  0  0  0
   -2.3838    1.4777   -0.0823 C   0  0  0  0  0  0  0  0  0  0  0  0
   -2.3255    0.4258    0.8481 C   0  0  0  0  0  0  0  0  0  0  0  0
   -3.4802    0.0321    1.5443 C   0  0  0  0  0  0  0  0  0  0  0  0
   -4.6888    0.6832    1.3133 C   0  0  0  0  0  0  0  0  0  0  0  0
   -4.7296    1.7302    0.3808 C   0  0  0  0  0  0  0  0  0  0  0  0
   -5.9276    2.3673    0.1588 O   0  0  0  0  0  0  0  0  0  0  0  0
   -5.8862    0.4007    1.9210 O   0  0  0  0  0  0  0  0  0  0  0  0
   -5.8863   -0.6535    2.8781 C   0  0  0  0  0  0  0  0  0  0  0  0
   -1.0621   -0.3080    1.1363 C   0  0  0  0  0  0  0  0  0  0  0  0
   -0.9830   -1.2133    1.9513 O   0  0  0  0  0  0  0  0  0  0  0  0
   -0.0449    0.1665    0.3760 O   0  0  0  0  0  0  0  0  0  0  0  0
    1.2139   -0.4878    0.5973 C   0  0  0  0  0  0  0  0  0  0  0  0
    2.2395    0.1539   -0.3317 C   0  0  0  0  0  0  0  0  0  0  0  0
    3.6592   -0.3751   -0.1374 C   0  0  0  0  0  0  0  0  0  0  0  0
    3.8132   -1.8483   -0.5111 C   0  0  0  0  0  0  0  0  0  0  0  0
    5.2064   -2.2481   -0.3422 N   0  0  0  0  0  0  0  0  0  0  0  0
    6.0104   -2.2066   -1.3331 C   0  0  0  0  0  0  0  0  0  0  0  0
    5.8125   -1.8007   -2.6061 N   0  0  0  0  0  0  0  0  0  0  0  0
    7.2881   -2.6146   -1.1759 N   0  0  0  0  0  0  0  0  0  0  0  0
   -2.2199    2.8324   -2.5658 H   0  0  0  0  0  0  0  0  0  0  0  0
   -1.8500    4.0053   -1.2421 H   0  0  0  0  0  0  0  0  0  0  0  0
   -2.9331    4.4496   -2.5663 H   0  0  0  0  0  0  0  0  0  0  0  0
   -1.4810    1.7671   -0.6088 H   0  0  0  0  0  0  0  0  0  0  0  0
   -3.4042   -0.7835    2.2575 H   0  0  0  0  0  0  0  0  0  0  0  0
   -6.5686    1.9255    0.7469 H   0  0  0  0  0  0  0  0  0  0  0  0
   -6.9043   -0.7502    3.2674 H   0  0  0  0  0  0  0  0  0  0  0  0
   -5.6149   -1.6073    2.4138 H   0  0  0  0  0  0  0  0  0  0  0  0
   -5.2278   -0.4204    3.7213 H   0  0  0  0  0  0  0  0  0  0  0  0
    1.1057   -1.5548    0.3753 H   0  0  0  0  0  0  0  0  0  0  0  0
    1.5147   -0.3547    1.6429 H   0  0  0  0  0  0  0  0  0  0  0  0
    1.9245    0.0191   -1.3741 H   0  0  0  0  0  0  0  0  0  0  0  0
    2.2380    1.2386   -0.1640 H   0  0  0  0  0  0  0  0  0  0  0  0
    3.9723   -0.2229    0.9031 H   0  0  0  0  0  0  0  0  0  0  0  0
    4.3388    0.2279   -0.7525 H   0  0  0  0  0  0  0  0  0  0  0  0
    3.4389   -2.0421   -1.5229 H   0  0  0  0  0  0  0  0  0  0  0  0
    3.2102   -2.4710    0.1584 H   0  0  0  0  0  0  0  0  0  0  0  0
    6.6298   -1.3356   -2.9847 H   0  0  0  0  0  0  0  0  0  0  0  0
    4.9874   -1.2298   -2.7341 H   0  0  0  0  0  0  0  0  0  0  0  0
    7.5753   -3.2542   -1.9066 H   0  0  0  0  0  0  0  0  0  0  0  0
    7.3901   -3.0554   -0.2660 H   0  0  0  0  0  0  0  0  0  0  0  0
  1  2  1  0
  2  3  1  0
  3  4  2  0
  4  5  1  0
  5  6  2  0
  6  7  1  0
  7  8  2  0
  8  9  1  0
  7 10  1  0
 10 11  1  0
  5 12  1  0
 12 13  2  0
 12 14  1  0
 14 15  1  0
 15 16  1  0
 16 17  1  0
 17 18  1  0
 18 19  1  0
 19 20  2  3
 20 21  1  0
 20 22  1  0
  8  3  1  0
  1 23  1  0
  1 24  1  0
  1 25  1  0
  4 26  1  0
  6 27  1  0
  9 28  1  0
 11 29  1  0
 11 30  1  0
 11 31  1  0
 15 32  1  0
 15 33  1  0
 16 34  1  0
 16 35  1  0
 17 36  1  0
 17 37  1  0
 18 38  1  0
 18 39  1  0
 21 40  1  0
 21 41  1  0
 22 42  1  0
 22 43  1  0
M  END
$$$$
leonurine.sdf
     RDKit          3D

 43 43  0  0  0  0  0  0  0  0999 V2000
   -3.2896    4.0130   -1.5349 C   0  0  0  0  0  0  0  0  0  0  0  0
   -4.0880    3.2256   -0.6583 O   0  0  0  0  0  0  0  0  0  0  0  0
   -3.5194    2.0784   -0.1634 C   0  0  0  0  0  0  0  0  0  0  0  0
   -2.2384    1.6108   -0.4491 C   0  0  0  0  0  0  0  0  0  0  0  0
   -1.7851    0.4148    0.1311 C   0  0  0  0  0  0  0  0  0  0  0  0
   -2.6194   -0.3099    1.0002 C   0  0  0  0  0  0  0  0  0  0  0  0
   -3.9045    0.1470    1.2946 C   0  0  0  0  0  0  0  0  0  0  0  0
   -4.3384    1.3403    0.7047 C   0  0  0  0  0  0  0  0  0  0  0  0
   -5.6008    1.8115    0.9781 O   0  0  0  0  0  0  0  0  0  0  0  0
   -4.7939   -0.4816    2.1239 O   0  0  0  0  0  0  0  0  0  0  0  0
   -4.3716   -1.6851    2.7495 C   0  0  0  0  0  0  0  0  0  0  0  0
   -0.4254   -0.1320   -0.1389 C   0  0  0  0  0  0  0  0  0  0  0  0
   -0.0031   -1.1545    0.3764 O   0  0  0  0  0  0  0  0  0  0  0  0
    0.2370    0.6591   -1.0184 O   0  0  0  0  0  0  0  0  0  0  0  0
    1.5773    0.2551   -1.3512 C   0  0  0  0  0  0  0  0  0  0  0  0
    2.5610    0.9123   -0.3891 C   0  0  0  0  0  0  0  0  0  0  0  0
    4.0313    0.7269   -0.7788 C   0  0  0  0  0  0  0  0  0  0  0  0
    4.4688   -0.7264   -0.9691 C   0  0  0  0  0  0  0  0  0  0  0  0
    4.1498   -1.4744    0.2381 N   0  0  0  0  0  0  0  0  0  0  0  0
    4.1737   -2.7507    0.1967 C   0  0  0  0  0  0  0  0  0  0  0  0
    3.8108   -3.4640    1.2838 N   0  0  0  0  0  0  0  0  0  0  0  0
    4.5095   -3.5815   -0.8141 N   0  0  0  0  0  0  0  0  0  0  0  0
   -3.0359    3.4568   -2.4432 H   0  0  0  0  0  0  0  0  0  0  0  0
   -2.3900    4.3777   -1.0282 H   0  0  0  0  0  0  0  0  0  0  0  0
   -3.8808    4.8844   -1.8322 H   0  0  0  0  0  0  0  0  0  0  0  0
   -1.5817    2.1590   -1.1155 H   0  0  0  0  0  0  0  0  0  0  0  0
   -2.2385   -1.2304    1.4332 H   0  0  0  0  0  0  0  0  0  0  0  0
   -5.6840    2.6400    0.4701 H   0  0  0  0  0  0  0  0  0  0  0  0
   -5.1942   -2.0429    3.3763 H   0  0  0  0  0  0  0  0  0  0  0  0
   -4.1571   -2.4614    2.0077 H   0  0  0  0  0  0  0  0  0  0  0  0
   -3.5090   -1.5104    3.4010 H   0  0  0  0  0  0  0  0  0  0  0  0
    1.6658   -0.8368   -1.3591 H   0  0  0  0  0  0  0  0  0  0  0  0
    1.7639    0.6015   -2.3734 H   0  0  0  0  0  0  0  0  0  0  0  0
    2.3439    1.9866   -0.3311 H   0  0  0  0  0  0  0  0  0  0  0  0
    2.3880    0.5313    0.6249 H   0  0  0  0  0  0  0  0  0  0  0  0
    4.6509    1.1889    0.0001 H   0  0  0  0  0  0  0  0  0  0  0  0
    4.2316    1.2779   -1.7057 H   0  0  0  0  0  0  0  0  0  0  0  0
    3.9695   -1.1448   -1.8508 H   0  0  0  0  0  0  0  0  0  0  0  0
    5.5496   -0.7506   -1.1507 H   0  0  0  0  0  0  0  0  0  0  0  0
    3.4086   -2.8308    1.9707 H   0  0  0  0  0  0  0  0  0  0  0  0
    3.1300   -4.1771    1.0498 H   0  0  0  0  0  0  0  0  0  0  0  0
    4.9775   -4.4145   -0.4755 H   0  0  0  0  0  0  0  0  0  0  0  0
    5.0504   -3.1390   -1.5455 H   0  0  0  0  0  0  0  0  0  0  0  0
  1  2  1  0
  2  3  1  0
  3  4  2  0
  4  5  1  0
  5  6  2  0
  6  7  1  0
  7  8  2  0
  8  9  1  0
  7 10  1  0
 10 11  1  0
  5 12  1  0
 12 13  2  0
 12 14  1  0
 14 15  1  0
 15 16  1  0
 16 17  1  0
 17 18  1  0
 18 19  1  0
 19 20  2  3
 20 21  1  0
 20 22  1  0
  8  3  1  0
  1 23  1  0
  1 24  1  0
  1 25  1  0
  4 26  1  0
  6 27  1  0
  9 28  1  0
 11 29  1  0
 11 30  1  0
 11 31  1  0
 15 32  1  0
 15 33  1  0
 16 34  1  0
 16 35  1  0
 17 36  1  0
 17 37  1  0
 18 38  1  0
 18 39  1  0
 21 40  1  0
 21 41  1  0
 22 42  1  0
 22 43  1  0
M  END
$$$$
leonurine.sdf
     RDKit          3D

 43 43  0  0  0  0  0  0  0  0999 V2000
   -3.1956    3.9151   -1.9272 C   0  0  0  0  0  0  0  0  0  0  0  0
   -4.1240    3.3190   -1.0279 O   0  0  0  0  0  0  0  0  0  0  0  0
   -3.7023    2.2029   -0.3494 C   0  0  0  0  0  0  0  0  0  0  0  0
   -2.4545    1.5949   -0.4694 C   0  0  0  0  0  0  0  0  0  0  0  0
   -2.1585    0.4517    0.2906 C   0  0  0  0  0  0  0  0  0  0  0  0
   -3.1159   -0.0795    1.1725 C   0  0  0  0  0  0  0  0  0  0  0  0
   -4.3692    0.5197    1.3020 C   0  0  0  0  0  0  0  0  0  0  0  0
   -4.6460    1.6575    0.5345 C   0  0  0  0  0  0  0  0  0  0  0  0
   -5.8741    2.2658    0.6435 O   0  0  0  0  0  0  0  0  0  0  0  0
   -5.3698    0.0834    2.1279 O   0  0  0  0  0  0  0  0  0  0  0  0
   -5.1081   -1.0579    2.9325 C   0  0  0  0  0  0  0  0  0  0  0  0
   -0.8418   -0.2390    0.2021 C   0  0  0  0  0  0  0  0  0  0  0  0
   -0.5522   -1.2218    0.8655 O   0  0  0  0  0  0  0  0  0  0  0  0
   -0.0382    0.3741   -0.7024 O   0  0  0  0  0  0  0  0  0  0  0  0
    1.2676   -0.2041   -0.8657 C   0  0  0  0  0  0  0  0  0  0  0  0
    2.2333    0.4106    0.1434 C   0  0  0  0  0  0  0  0  0  0  0  0
    3.6622   -0.1091   -0.0012 C   0  0  0  0  0  0  0  0  0  0  0  0
    3.8268   -1.5508    0.4792 C   0  0  0  0  0  0  0  0  0  0  0  0
    5.2292   -1.9377    0.3656 N   0  0  0  0  0  0  0  0  0  0  0  0
    5.6626   -2.5090   -0.6900 C   0  0  0  0  0  0  0  0  0  0  0  0
    6.9691   -2.8396   -0.7790 N   0  0  0  0  0  0  0  0  0  0  0  0
    5.0264   -2.8589   -1.8294 N   0  0  0  0  0  0  0  0  0  0  0  0
   -3.6800    4.7870   -2.3773 H   0  0  0  0  0  0  0  0  0  0  0  0
   -2.3034    4.2656   -1.3979 H   0  0  0  0  0  0  0  0  0  0  0  0
   -2.9324    3.2256   -2.7360 H   0  0  0  0  0  0  0  0  0  0  0  0
   -1.7043    1.9929   -1.1437 H   0  0  0  0  0  0  0  0  0  0  0  0
   -2.8553   -0.9642    1.7466 H   0  0  0  0  0  0  0  0  0  0  0  0
   -5.8438    3.0247    0.0314 H   0  0  0  0  0  0  0  0  0  0  0  0
   -6.0026   -1.2583    3.5301 H   0  0  0  0  0  0  0  0  0  0  0  0
   -4.9166   -1.9410    2.3141 H   0  0  0  0  0  0  0  0  0  0  0  0
   -4.2804   -0.8720    3.6249 H   0  0  0  0  0  0  0  0  0  0  0  0
    1.2207   -1.2959   -0.7920 H   0  0  0  0  0  0  0  0  0  0  0  0
    1.5921    0.0316   -1.8851 H   0  0  0  0  0  0  0  0  0  0  0  0
    2.2326    1.4993    0.0044 H   0  0  0  0  0  0  0  0  0  0  0  0
    1.8712    0.2460    1.1653 H   0  0  0  0  0  0  0  0  0  0  0  0
    3.9881   -0.0169   -1.0444 H   0  0  0  0  0  0  0  0  0  0  0  0
    4.3283    0.5356    0.5865 H   0  0  0  0  0  0  0  0  0  0  0  0
    3.1595   -2.2375   -0.0495 H   0  0  0  0  0  0  0  0  0  0  0  0
    3.5444   -1.6166    1.5366 H   0  0  0  0  0  0  0  0  0  0  0  0
    7.4704   -2.4397    0.0093 H   0  0  0  0  0  0  0  0  0  0  0  0
    7.3822   -2.5290   -1.6497 H   0  0  0  0  0  0  0  0  0  0  0  0
    4.0193   -2.8933   -1.7531 H   0  0  0  0  0  0  0  0  0  0  0  0
    5.3829   -3.7312   -2.2037 H   0  0  0  0  0  0  0  0  0  0  0  0
  1  2  1  0
  2  3  1  0
  3  4  2  0
  4  5  1  0
  5  6  2  0
  6  7  1  0
  7  8  2  0
  8  9  1  0
  7 10  1  0
 10 11  1  0
  5 12  1  0
 12 13  2  0
 12 14  1  0
 14 15  1  0
 15 16  1  0
 16 17  1  0
 17 18  1  0
 18 19  1  0
 19 20  2  3
 20 21  1  0
 20 22  1  0
  8  3  1  0
  1 23  1  0
  1 24  1  0
  1 25  1  0
  4 26  1  0
  6 27  1  0
  9 28  1  0
 11 29  1  0
 11 30  1  0
 11 31  1  0
 15 32  1  0
 15 33  1  0
 16 34  1  0
 16 35  1  0
 17 36  1  0
 17 37  1  0
 18 38  1  0
 18 39  1  0
 21 40  1  0
 21 41  1  0
 22 42  1  0
 22 43  1  0
M  END
$$$$
leonurine.sdf
     RDKit          3D

 43 43  0  0  0  0  0  0  0  0999 V2000
   -3.9230    4.7971   -1.0594 C   0  0  0  0  0  0  0  0  0  0  0  0
   -4.4861    3.8382   -0.1751 O   0  0  0  0  0  0  0  0  0  0  0  0
   -3.8219    2.6510   -0.0220 C   0  0  0  0  0  0  0  0  0  0  0  0
   -2.6445    2.2982   -0.6823 C   0  0  0  0  0  0  0  0  0  0  0  0
   -2.0442    1.0479   -0.4524 C   0  0  0  0  0  0  0  0  0  0  0  0
   -2.6238    0.1406    0.4492 C   0  0  0  0  0  0  0  0  0  0  0  0
   -3.7993    0.4805    1.1154 C   0  0  0  0  0  0  0  0  0  0  0  0
   -4.3858    1.7318    0.8710 C   0  0  0  0  0  0  0  0  0  0  0  0
   -5.5464    2.0552    1.5334 O   0  0  0  0  0  0  0  0  0  0  0  0
   -4.4708   -0.3059    2.0180 O   0  0  0  0  0  0  0  0  0  0  0  0
   -3.9043   -1.5789    2.3085 C   0  0  0  0  0  0  0  0  0  0  0  0
   -0.7889    0.7369   -1.1917 C   0  0  0  0  0  0  0  0  0  0  0  0
   -0.2415    1.5255   -1.9456 O   0  0  0  0  0  0  0  0  0  0  0  0
   -0.3661   -0.5197   -0.9072 O   0  0  0  0  0  0  0  0  0  0  0  0
    0.8489   -0.9311   -1.5546 C   0  0  0  0  0  0  0  0  0  0  0  0
    2.0511   -0.5278   -0.7074 C   0  0  0  0  0  0  0  0  0  0  0  0
    3.3643   -0.9593   -1.3607 C   0  0  0  0  0  0  0  0  0  0  0  0
    4.5843   -0.5655   -0.5299 C   0  0  0  0  0  0  0  0  0  0  0  0
    4.5976   -1.2842    0.7401 N   0  0  0  0  0  0  0  0  0  0  0  0
    5.1282   -2.4422    0.8231 C   0  0  0  0  0  0  0  0  0  0  0  0
    5.7208   -3.2088   -0.1180 N   0  0  0  0  0  0  0  0  0  0  0  0
    5.1256   -3.0937    2.0060 N   0  0  0  0  0  0  0  0  0  0  0  0
   -3.8907    4.4164   -2.0855 H   0  0  0  0  0  0  0  0  0  0  0  0
   -4.5704    5.6793   -1.0525 H   0  0  0  0  0  0  0  0  0  0  0  0
   -2.9298    5.1110   -0.7217 H   0  0  0  0  0  0  0  0  0  0  0  0
   -2.1699    2.9776   -1.3846 H   0  0  0  0  0  0  0  0  0  0  0  0
   -2.1457   -0.8181    0.6176 H   0  0  0  0  0  0  0  0  0  0  0  0
   -5.7494    1.2826    2.0932 H   0  0  0  0  0  0  0  0  0  0  0  0
   -3.8741   -2.2099    1.4141 H   0  0  0  0  0  0  0  0  0  0  0  0
   -2.9101   -1.4755    2.7554 H   0  0  0  0  0  0  0  0  0  0  0  0
   -4.5496   -2.0717    3.0420 H   0  0  0  0  0  0  0  0  0  0  0  0
    0.8043   -2.0217   -1.6477 H   0  0  0  0  0  0  0  0  0  0  0  0
    0.9114   -0.5263   -2.5718 H   0  0  0  0  0  0  0  0  0  0  0  0
    2.0488    0.5580   -0.5527 H   0  0  0  0  0  0  0  0  0  0  0  0
    1.9481   -0.9727    0.2898 H   0  0  0  0  0  0  0  0  0  0  0  0
    3.4459   -0.4856   -2.3466 H   0  0  0  0  0  0  0  0  0  0  0  0
    3.3553   -2.0432   -1.5260 H   0  0  0  0  0  0  0  0  0  0  0  0
    4.5552    0.5094   -0.3162 H   0  0  0  0  0  0  0  0  0  0  0  0
    5.5041   -0.7263   -1.1031 H   0  0  0  0  0  0  0  0  0  0  0  0
    5.9739   -2.7158   -0.9637 H   0  0  0  0  0  0  0  0  0  0  0  0
    6.5172   -3.7145    0.2532 H   0  0  0  0  0  0  0  0  0  0  0  0
    4.5444   -2.5883    2.6685 H   0  0  0  0  0  0  0  0  0  0  0  0
    4.8071   -4.0503    1.9146 H   0  0  0  0  0  0  0  0  0  0  0  0
  1  2  1  0
  2  3  1  0
  3  4  2  0
  4  5  1  0
  5  6  2  0
  6  7  1  0
  7  8  2  0
  8  9  1  0
  7 10  1  0
 10 11  1  0
  5 12  1  0
 12 13  2  0
 12 14  1  0
 14 15  1  0
 15 16  1  0
 16 17  1  0
 17 18  1  0
 18 19  1  0
 19 20  2  3
 20 21  1  0
 20 22  1  0
  8  3  1  0
  1 23  1  0
  1 24  1  0
  1 25  1  0
  4 26  1  0
  6 27  1  0
  9 28  1  0
 11 29  1  0
 11 30  1  0
 11 31  1  0
 15 32  1  0
 15 33  1  0
 16 34  1  0
 16 35  1  0
 17 36  1  0
 17 37  1  0
 18 38  1  0
 18 39  1  0
 21 40  1  0
 21 41  1  0
 22 42  1  0
 22 43  1  0
M  END
$$$$
leonurine.sdf
     RDKit          3D

 43 43  0  0  0  0  0  0  0  0999 V2000
   -2.7179    4.1144   -1.4586 C   0  0  0  0  0  0  0  0  0  0  0  0
   -3.7900    3.5355   -0.7286 O   0  0  0  0  0  0  0  0  0  0  0  0
   -3.5692    2.3279   -0.1224 C   0  0  0  0  0  0  0  0  0  0  0  0
   -2.3717    1.6115   -0.1710 C   0  0  0  0  0  0  0  0  0  0  0  0
   -2.2568    0.3768    0.4907 C   0  0  0  0  0  0  0  0  0  0  0  0
   -3.3459   -0.1465    1.2067 C   0  0  0  0  0  0  0  0  0  0  0  0
   -4.5454    0.5577    1.2629 C   0  0  0  0  0  0  0  0  0  0  0  0
   -4.6434    1.7882    0.5966 C   0  0  0  0  0  0  0  0  0  0  0  0
   -5.8319    2.4766    0.6574 O   0  0  0  0  0  0  0  0  0  0  0  0
   -5.6820    0.1636    1.9230 O   0  0  0  0  0  0  0  0  0  0  0  0
   -5.6230   -1.0786    2.6162 C   0  0  0  0  0  0  0  0  0  0  0  0
   -0.9997   -0.4211    0.4651 C   0  0  0  0  0  0  0  0  0  0  0  0
   -0.8747   -1.4977    1.0276 O   0  0  0  0  0  0  0  0  0  0  0  0
   -0.0417    0.2103   -0.2570 O   0  0  0  0  0  0  0  0  0  0  0  0
    1.2047   -0.4967   -0.3263 C   0  0  0  0  0  0  0  0  0  0  0  0
    2.1557    0.3100   -1.2036 C   0  0  0  0  0  0  0  0  0  0  0  0
    3.4946   -0.3843   -1.4479 C   0  0  0  0  0  0  0  0  0  0  0  0
    4.3410   -0.5305   -0.1845 C   0  0  0  0  0  0  0  0  0  0  0  0
    5.6525   -1.0618   -0.5407 N   0  0  0  0  0  0  0  0  0  0  0  0
    5.8744   -2.3177   -0.4823 C   0  0  0  0  0  0  0  0  0  0  0  0
    7.1024   -2.7941   -0.7804 N   0  0  0  0  0  0  0  0  0  0  0  0
    5.0548   -3.3397   -0.1536 N   0  0  0  0  0  0  0  0  0  0  0  0
   -2.4257    3.4790   -2.3012 H   0  0  0  0  0  0  0  0  0  0  0  0
   -1.8639    4.3245   -0.8063 H   0  0  0  0  0  0  0  0  0  0  0  0
   -3.0670    5.0678   -1.8668 H   0  0  0  0  0  0  0  0  0  0  0  0
   -1.5193    1.9985   -0.7187 H   0  0  0  0  0  0  0  0  0  0  0  0
   -3.2274   -1.1027    1.7080 H   0  0  0  0  0  0  0  0  0  0  0  0
   -6.4244    1.9238    1.2007 H   0  0  0  0  0  0  0  0  0  0  0  0
   -4.8703   -1.0513    3.4109 H   0  0  0  0  0  0  0  0  0  0  0  0
   -5.4405   -1.9076    1.9244 H   0  0  0  0  0  0  0  0  0  0  0  0
   -6.5973   -1.2450    3.0857 H   0  0  0  0  0  0  0  0  0  0  0  0
    1.6089   -0.6032    0.6860 H   0  0  0  0  0  0  0  0  0  0  0  0
    1.0395   -1.4881   -0.7642 H   0  0  0  0  0  0  0  0  0  0  0  0
    2.3159    1.2998   -0.7584 H   0  0  0  0  0  0  0  0  0  0  0  0
    1.6707    0.4986   -2.1699 H   0  0  0  0  0  0  0  0  0  0  0  0
    4.0566    0.1990   -2.1885 H   0  0  0  0  0  0  0  0  0  0  0  0
    3.3235   -1.3689   -1.9000 H   0  0  0  0  0  0  0  0  0  0  0  0
    4.4904    0.4547    0.2725 H   0  0  0  0  0  0  0  0  0  0  0  0
    3.8390   -1.1410    0.5733 H   0  0  0  0  0  0  0  0  0  0  0  0
    7.7497   -2.0170   -0.8779 H   0  0  0  0  0  0  0  0  0  0  0  0
    7.4390   -3.4422   -0.0788 H   0  0  0  0  0  0  0  0  0  0  0  0
    4.0700   -3.1120   -0.1832 H   0  0  0  0  0  0  0  0  0  0  0  0
    5.2458   -4.1703   -0.7024 H   0  0  0  0  0  0  0  0  0  0  0  0
  1  2  1  0
  2  3  1  0
  3  4  2  0
  4  5  1  0
  5  6  2  0
  6  7  1  0
  7  8  2  0
  8  9  1  0
  7 10  1  0
 10 11  1  0
  5 12  1  0
 12 13  2  0
 12 14  1  0
 14 15  1  0
 15 16  1  0
 16 17  1  0
 17 18  1  0
 18 19  1  0
 19 20  2  3
 20 21  1  0
 20 22  1  0
  8  3  1  0
  1 23  1  0
  1 24  1  0
  1 25  1  0
  4 26  1  0
  6 27  1  0
  9 28  1  0
 11 29  1  0
 11 30  1  0
 11 31  1  0
 15 32  1  0
 15 33  1  0
 16 34  1  0
 16 35  1  0
 17 36  1  0
 17 37  1  0
 18 38  1  0
 18 39  1  0
 21 40  1  0
 21 41  1  0
 22 42  1  0
 22 43  1  0
M  END
$$$$
leonurine.sdf
     RDKit          3D

 43 43  0  0  0  0  0  0  0  0999 V2000
   -1.4777    3.2748   -1.6845 C   0  0  0  0  0  0  0  0  0  0  0  0
   -2.7974    3.0394   -1.2158 O   0  0  0  0  0  0  0  0  0  0  0  0
   -2.9893    1.9936   -0.3531 C   0  0  0  0  0  0  0  0  0  0  0  0
   -1.9870    1.1374    0.1068 C   0  0  0  0  0  0  0  0  0  0  0  0
   -2.2984    0.0925    0.9940 C   0  0  0  0  0  0  0  0  0  0  0  0
   -3.6214   -0.0991    1.4248 C   0  0  0  0  0  0  0  0  0  0  0  0
   -4.6302    0.7476    0.9739 C   0  0  0  0  0  0  0  0  0  0  0  0
   -4.3020    1.7856    0.0892 C   0  0  0  0  0  0  0  0  0  0  0  0
   -5.3049    2.6168   -0.3507 O   0  0  0  0  0  0  0  0  0  0  0  0
   -5.9576    0.6733    1.3138 O   0  0  0  0  0  0  0  0  0  0  0  0
   -6.3324   -0.3690    2.2086 C   0  0  0  0  0  0  0  0  0  0  0  0
   -1.2616   -0.8447    1.5086 C   0  0  0  0  0  0  0  0  0  0  0  0
   -1.5092   -1.7676    2.2684 O   0  0  0  0  0  0  0  0  0  0  0  0
   -0.0399   -0.5234    1.0185 O   0  0  0  0  0  0  0  0  0  0  0  0
    1.0195   -1.3863    1.4545 C   0  0  0  0  0  0  0  0  0  0  0  0
    2.3301   -0.9206    0.8276 C   0  0  0  0  0  0  0  0  0  0  0  0
    2.3094   -1.0336   -0.7015 C   0  0  0  0  0  0  0  0  0  0  0  0
    3.6272   -0.5871   -1.3351 C   0  0  0  0  0  0  0  0  0  0  0  0
    4.6783   -1.5266   -0.9575 N   0  0  0  0  0  0  0  0  0  0  0  0
    5.8436   -1.3660   -1.4572 C   0  0  0  0  0  0  0  0  0  0  0  0
    6.8340   -2.2293   -1.1464 N   0  0  0  0  0  0  0  0  0  0  0  0
    6.3023   -0.4247   -2.3108 N   0  0  0  0  0  0  0  0  0  0  0  0
   -1.5100    4.1375   -2.3569 H   0  0  0  0  0  0  0  0  0  0  0  0
   -0.8034    3.5226   -0.8580 H   0  0  0  0  0  0  0  0  0  0  0  0
   -1.1037    2.4202   -2.2578 H   0  0  0  0  0  0  0  0  0  0  0  0
   -0.9593    1.2676   -0.2145 H   0  0  0  0  0  0  0  0  0  0  0  0
   -3.8315   -0.9153    2.1099 H   0  0  0  0  0  0  0  0  0  0  0  0
   -6.1182    2.2903    0.0779 H   0  0  0  0  0  0  0  0  0  0  0  0
   -5.8355   -0.2543    3.1775 H   0  0  0  0  0  0  0  0  0  0  0  0
   -6.1319   -1.3535    1.7731 H   0  0  0  0  0  0  0  0  0  0  0  0
   -7.4110   -0.2925    2.3763 H   0  0  0  0  0  0  0  0  0  0  0  0
    0.8030   -2.4193    1.1579 H   0  0  0  0  0  0  0  0  0  0  0  0
    1.1017   -1.3322    2.5463 H   0  0  0  0  0  0  0  0  0  0  0  0
    3.1496   -1.5195    1.2401 H   0  0  0  0  0  0  0  0  0  0  0  0
    2.5109    0.1258    1.1021 H   0  0  0  0  0  0  0  0  0  0  0  0
    1.5021   -0.4105   -1.1046 H   0  0  0  0  0  0  0  0  0  0  0  0
    2.0935   -2.0696   -0.9903 H   0  0  0  0  0  0  0  0  0  0  0  0
    3.8725    0.4276   -1.0001 H   0  0  0  0  0  0  0  0  0  0  0  0
    3.5018   -0.5742   -2.4245 H   0  0  0  0  0  0  0  0  0  0  0  0
    6.4468   -3.0186   -0.6372 H   0  0  0  0  0  0  0  0  0  0  0  0
    7.3293   -2.5522   -1.9686 H   0  0  0  0  0  0  0  0  0  0  0  0
    5.7041    0.3868   -2.3937 H   0  0  0  0  0  0  0  0  0  0  0  0
    7.2541   -0.1497   -2.0963 H   0  0  0  0  0  0  0  0  0  0  0  0
  1  2  1  0
  2  3  1  0
  3  4  2  0
  4  5  1  0
  5  6  2  0
  6  7  1  0
  7  8  2  0
  8  9  1  0
  7 10  1  0
 10 11  1  0
  5 12  1  0
 12 13  2  0
 12 14  1  0
 14 15  1  0
 15 16  1  0
 16 17  1  0
 17 18  1  0
 18 19  1  0
 19 20  2  3
 20 21  1  0
 20 22  1  0
  8  3  1  0
  1 23  1  0
  1 24  1  0
  1 25  1  0
  4 26  1  0
  6 27  1  0
  9 28  1  0
 11 29  1  0
 11 30  1  0
 11 31  1  0
 15 32  1  0
 15 33  1  0
 16 34  1  0
 16 35  1  0
 17 36  1  0
 17 37  1  0
 18 38  1  0
 18 39  1  0
 21 40  1  0
 21 41  1  0
 22 42  1  0
 22 43  1  0
M  END
$$$$
leonurine.sdf
     RDKit          3D

 43 43  0  0  0  0  0  0  0  0999 V2000
   -2.0520    4.4425   -1.6746 C   0  0  0  0  0  0  0  0  0  0  0  0
   -3.0179    3.4472   -1.3536 O   0  0  0  0  0  0  0  0  0  0  0  0
   -2.5679    2.3515   -0.6603 C   0  0  0  0  0  0  0  0  0  0  0  0
   -1.2658    2.1444   -0.2132 C   0  0  0  0  0  0  0  0  0  0  0  0
   -0.9424    0.9728    0.4906 C   0  0  0  0  0  0  0  0  0  0  0  0
   -1.9287    0.0024    0.7389 C   0  0  0  0  0  0  0  0  0  0  0  0
   -3.2384    0.1975    0.2964 C   0  0  0  0  0  0  0  0  0  0  0  0
   -3.5411    1.3761   -0.3971 C   0  0  0  0  0  0  0  0  0  0  0  0
   -4.8250    1.5914   -0.8400 O   0  0  0  0  0  0  0  0  0  0  0  0
   -4.2731   -0.6791    0.4866 O   0  0  0  0  0  0  0  0  0  0  0  0
   -3.9840   -1.9058    1.1416 C   0  0  0  0  0  0  0  0  0  0  0  0
    0.4669    0.8024    0.9435 C   0  0  0  0  0  0  0  0  0  0  0  0
    1.3609    1.5763    0.6301 O   0  0  0  0  0  0  0  0  0  0  0  0
    0.5741   -0.2912    1.7354 O   0  0  0  0  0  0  0  0  0  0  0  0
    1.8985   -0.6633    2.1415 C   0  0  0  0  0  0  0  0  0  0  0  0
    2.0311   -2.1876    2.1011 C   0  0  0  0  0  0  0  0  0  0  0  0
    1.6692   -2.8562    0.7645 C   0  0  0  0  0  0  0  0  0  0  0  0
    2.5949   -2.4976   -0.4005 C   0  0  0  0  0  0  0  0  0  0  0  0
    2.3591   -1.1126   -0.7654 N   0  0  0  0  0  0  0  0  0  0  0  0
    3.1826   -0.4999   -1.5228 C   0  0  0  0  0  0  0  0  0  0  0  0
    3.0185    0.8198   -1.7561 N   0  0  0  0  0  0  0  0  0  0  0  0
    4.2831   -0.9609   -2.1546 N   0  0  0  0  0  0  0  0  0  0  0  0
   -1.6363    4.8944   -0.7680 H   0  0  0  0  0  0  0  0  0  0  0  0
   -1.2617    4.0345   -2.3134 H   0  0  0  0  0  0  0  0  0  0  0  0
   -2.5606    5.2316   -2.2368 H   0  0  0  0  0  0  0  0  0  0  0  0
   -0.4827    2.8739   -0.3949 H   0  0  0  0  0  0  0  0  0  0  0  0
   -1.6547   -0.9002    1.2743 H   0  0  0  0  0  0  0  0  0  0  0  0
   -4.8000    2.4554   -1.2922 H   0  0  0  0  0  0  0  0  0  0  0  0
   -4.9098   -2.4874    1.1868 H   0  0  0  0  0  0  0  0  0  0  0  0
   -3.6489   -1.7342    2.1698 H   0  0  0  0  0  0  0  0  0  0  0  0
   -3.2502   -2.4920    0.5784 H   0  0  0  0  0  0  0  0  0  0  0  0
    2.0321   -0.3215    3.1739 H   0  0  0  0  0  0  0  0  0  0  0  0
    2.6805   -0.1882    1.5416 H   0  0  0  0  0  0  0  0  0  0  0  0
    1.3579   -2.6059    2.8604 H   0  0  0  0  0  0  0  0  0  0  0  0
    3.0501   -2.4684    2.3919 H   0  0  0  0  0  0  0  0  0  0  0  0
    0.6299   -2.6237    0.5018 H   0  0  0  0  0  0  0  0  0  0  0  0
    1.7168   -3.9423    0.9124 H   0  0  0  0  0  0  0  0  0  0  0  0
    3.6366   -2.6709   -0.1058 H   0  0  0  0  0  0  0  0  0  0  0  0
    2.3624   -3.1478   -1.2516 H   0  0  0  0  0  0  0  0  0  0  0  0
    3.8848    1.3317   -1.6452 H   0  0  0  0  0  0  0  0  0  0  0  0
    2.3391    1.1878   -1.0833 H   0  0  0  0  0  0  0  0  0  0  0  0
    4.3098   -1.9694   -2.2342 H   0  0  0  0  0  0  0  0  0  0  0  0
    4.4022   -0.5277   -3.0633 H   0  0  0  0  0  0  0  0  0  0  0  0
  1  2  1  0
  2  3  1  0
  3  4  2  0
  4  5  1  0
  5  6  2  0
  6  7  1  0
  7  8  2  0
  8  9  1  0
  7 10  1  0
 10 11  1  0
  5 12  1  0
 12 13  2  0
 12 14  1  0
 14 15  1  0
 15 16  1  0
 16 17  1  0
 17 18  1  0
 18 19  1  0
 19 20  2  3
 20 21  1  0
 20 22  1  0
  8  3  1  0
  1 23  1  0
  1 24  1  0
  1 25  1  0
  4 26  1  0
  6 27  1  0
  9 28  1  0
 11 29  1  0
 11 30  1  0
 11 31  1  0
 15 32  1  0
 15 33  1  0
 16 34  1  0
 16 35  1  0
 17 36  1  0
 17 37  1  0
 18 38  1  0
 18 39  1  0
 21 40  1  0
 21 41  1  0
 22 42  1  0
 22 43  1  0
M  END
$$$$
leonurine.sdf
     RDKit          3D

 43 43  0  0  0  0  0  0  0  0999 V2000
   -3.4672    5.2997   -0.3725 C   0  0  0  0  0  0  0  0  0  0  0  0
   -4.2335    4.1668    0.0118 O   0  0  0  0  0  0  0  0  0  0  0  0
   -3.6174    2.9448   -0.0207 C   0  0  0  0  0  0  0  0  0  0  0  0
   -2.2940    2.7222   -0.4025 C   0  0  0  0  0  0  0  0  0  0  0  0
   -1.7594    1.4220   -0.4002 C   0  0  0  0  0  0  0  0  0  0  0  0
   -2.5542    0.3316   -0.0109 C   0  0  0  0  0  0  0  0  0  0  0  0
   -3.8772    0.5400    0.3729 C   0  0  0  0  0  0  0  0  0  0  0  0
   -4.3939    1.8447    0.3632 C   0  0  0  0  0  0  0  0  0  0  0  0
   -5.7009    2.0375    0.7439 O   0  0  0  0  0  0  0  0  0  0  0  0
   -4.7623   -0.4293    0.7745 O   0  0  0  0  0  0  0  0  0  0  0  0
   -4.2800   -1.7683    0.8027 C   0  0  0  0  0  0  0  0  0  0  0  0
   -0.3390    1.2568   -0.8180 C   0  0  0  0  0  0  0  0  0  0  0  0
    0.3818    2.1911   -1.1306 O   0  0  0  0  0  0  0  0  0  0  0  0
    0.0146   -0.0514   -0.7946 O   0  0  0  0  0  0  0  0  0  0  0  0
    1.3703   -0.3428   -1.1772 C   0  0  0  0  0  0  0  0  0  0  0  0
    2.2832   -0.2491    0.0411 C   0  0  0  0  0  0  0  0  0  0  0  0
    3.7685   -0.4212   -0.2864 C   0  0  0  0  0  0  0  0  0  0  0  0
    4.1259   -1.7220   -1.0041 C   0  0  0  0  0  0  0  0  0  0  0  0
    3.6436   -2.8752   -0.2527 N   0  0  0  0  0  0  0  0  0  0  0  0
    4.3957   -3.4312    0.6168 C   0  0  0  0  0  0  0  0  0  0  0  0
    5.6433   -3.1155    1.0269 N   0  0  0  0  0  0  0  0  0  0  0  0
    3.9561   -4.5196    1.2843 N   0  0  0  0  0  0  0  0  0  0  0  0
   -2.6130    5.4444    0.2971 H   0  0  0  0  0  0  0  0  0  0  0  0
   -3.1442    5.2225   -1.4159 H   0  0  0  0  0  0  0  0  0  0  0  0
   -4.1089    6.1820   -0.2878 H   0  0  0  0  0  0  0  0  0  0  0  0
   -1.6523    3.5438   -0.7080 H   0  0  0  0  0  0  0  0  0  0  0  0
   -2.1253   -0.6645   -0.0128 H   0  0  0  0  0  0  0  0  0  0  0  0
   -6.0401    1.1499    0.9646 H   0  0  0  0  0  0  0  0  0  0  0  0
   -5.0986   -2.4105    1.1417 H   0  0  0  0  0  0  0  0  0  0  0  0
   -3.9866   -2.1027   -0.1978 H   0  0  0  0  0  0  0  0  0  0  0  0
   -3.4555   -1.8754    1.5152 H   0  0  0  0  0  0  0  0  0  0  0  0
    1.7003    0.3199   -1.9860 H   0  0  0  0  0  0  0  0  0  0  0  0
    1.3650   -1.3616   -1.5772 H   0  0  0  0  0  0  0  0  0  0  0  0
    1.9675   -0.9908    0.7852 H   0  0  0  0  0  0  0  0  0  0  0  0
    2.1444    0.7228    0.5307 H   0  0  0  0  0  0  0  0  0  0  0  0
    4.3338   -0.3560    0.6513 H   0  0  0  0  0  0  0  0  0  0  0  0
    4.0980    0.4213   -0.9068 H   0  0  0  0  0  0  0  0  0  0  0  0
    3.6649   -1.7419   -1.9979 H   0  0  0  0  0  0  0  0  0  0  0  0
    5.2059   -1.7673   -1.1880 H   0  0  0  0  0  0  0  0  0  0  0  0
    5.9366   -2.1790    0.7810 H   0  0  0  0  0  0  0  0  0  0  0  0
    5.7683   -3.2780    2.0197 H   0  0  0  0  0  0  0  0  0  0  0  0
    4.6443   -5.2626    1.2948 H   0  0  0  0  0  0  0  0  0  0  0  0
    3.0916   -4.8478    0.8639 H   0  0  0  0  0  0  0  0  0  0  0  0
  1  2  1  0
  2  3  1  0
  3  4  2  0
  4  5  1  0
  5  6  2  0
  6  7  1  0
  7  8  2  0
  8  9  1  0
  7 10  1  0
 10 11  1  0
  5 12  1  0
 12 13  2  0
 12 14  1  0
 14 15  1  0
 15 16  1  0
 16 17  1  0
 17 18  1  0
 18 19  1  0
 19 20  2  3
 20 21  1  0
 20 22  1  0
  8  3  1  0
  1 23  1  0
  1 24  1  0
  1 25  1  0
  4 26  1  0
  6 27  1  0
  9 28  1  0
 11 29  1  0
 11 30  1  0
 11 31  1  0
 15 32  1  0
 15 33  1  0
 16 34  1  0
 16 35  1  0
 17 36  1  0
 17 37  1  0
 18 38  1  0
 18 39  1  0
 21 40  1  0
 21 41  1  0
 22 42  1  0
 22 43  1  0
M  END
$$$$
leonurine.sdf
     RDKit          3D

 43 43  0  0  0  0  0  0  0  0999 V2000
   -2.1764    4.5867    0.0078 C   0  0  0  0  0  0  0  0  0  0  0  0
   -3.3642    3.8230    0.1869 O   0  0  0  0  0  0  0  0  0  0  0  0
   -3.2359    2.4571    0.1413 C   0  0  0  0  0  0  0  0  0  0  0  0
   -2.0506    1.7528   -0.0592 C   0  0  0  0  0  0  0  0  0  0  0  0
   -2.0674    0.3487   -0.0826 C   0  0  0  0  0  0  0  0  0  0  0  0
   -3.2758   -0.3474    0.0950 C   0  0  0  0  0  0  0  0  0  0  0  0
   -4.4699    0.3456    0.2969 C   0  0  0  0  0  0  0  0  0  0  0  0
   -4.4323    1.7451    0.3175 C   0  0  0  0  0  0  0  0  0  0  0  0
   -5.5953    2.4515    0.5148 O   0  0  0  0  0  0  0  0  0  0  0  0
   -5.6964   -0.2341    0.4801 O   0  0  0  0  0  0  0  0  0  0  0  0
   -5.7620   -1.6531    0.4597 C   0  0  0  0  0  0  0  0  0  0  0  0
   -0.8305   -0.4548   -0.2933 C   0  0  0  0  0  0  0  0  0  0  0  0
   -0.8223   -1.6747   -0.3333 O   0  0  0  0  0  0  0  0  0  0  0  0
    0.2468    0.3568   -0.4280 O   0  0  0  0  0  0  0  0  0  0  0  0
    1.4927   -0.3340   -0.6300 C   0  0  0  0  0  0  0  0  0  0  0  0
    2.5727    0.7227   -0.8425 C   0  0  0  0  0  0  0  0  0  0  0  0
    3.9273    0.1698   -1.2925 C   0  0  0  0  0  0  0  0  0  0  0  0
    4.6329   -0.7057   -0.2569 C   0  0  0  0  0  0  0  0  0  0  0  0
    3.9685   -2.0010   -0.1943 N   0  0  0  0  0  0  0  0  0  0  0  0
    4.4752   -2.9144    0.5418 C   0  0  0  0  0  0  0  0  0  0  0  0
    3.8839   -4.1254    0.6137 N   0  0  0  0  0  0  0  0  0  0  0  0
    5.5788   -2.8908    1.3200 N   0  0  0  0  0  0  0  0  0  0  0  0
   -1.7400    4.4110   -0.9810 H   0  0  0  0  0  0  0  0  0  0  0  0
   -1.4526    4.3821    0.8035 H   0  0  0  0  0  0  0  0  0  0  0  0
   -2.4480    5.6450    0.0687 H   0  0  0  0  0  0  0  0  0  0  0  0
   -1.1098    2.2738   -0.1986 H   0  0  0  0  0  0  0  0  0  0  0  0
   -3.2541   -1.4333    0.0712 H   0  0  0  0  0  0  0  0  0  0  0  0
   -5.3350    3.3912    0.4906 H   0  0  0  0  0  0  0  0  0  0  0  0
   -5.1699   -2.0876    1.2719 H   0  0  0  0  0  0  0  0  0  0  0  0
   -5.4514   -2.0490   -0.5128 H   0  0  0  0  0  0  0  0  0  0  0  0
   -6.8055   -1.9421    0.6181 H   0  0  0  0  0  0  0  0  0  0  0  0
    1.4128   -0.9805   -1.5114 H   0  0  0  0  0  0  0  0  0  0  0  0
    1.7020   -0.9324    0.2619 H   0  0  0  0  0  0  0  0  0  0  0  0
    2.2212    1.4376   -1.5980 H   0  0  0  0  0  0  0  0  0  0  0  0
    2.6916    1.3092    0.0773 H   0  0  0  0  0  0  0  0  0  0  0  0
    3.8053   -0.3820   -2.2327 H   0  0  0  0  0  0  0  0  0  0  0  0
    4.5778    1.0258   -1.5115 H   0  0  0  0  0  0  0  0  0  0  0  0
    5.6767   -0.8333   -0.5687 H   0  0  0  0  0  0  0  0  0  0  0  0
    4.6202   -0.2103    0.7209 H   0  0  0  0  0  0  0  0  0  0  0  0
    3.1387   -4.1841   -0.0752 H   0  0  0  0  0  0  0  0  0  0  0  0
    4.5429   -4.8829    0.4825 H   0  0  0  0  0  0  0  0  0  0  0  0
    5.4506   -3.4204    2.1749 H   0  0  0  0  0  0  0  0  0  0  0  0
    5.9266   -1.9623    1.5203 H   0  0  0  0  0  0  0  0  0  0  0  0
  1  2  1  0
  2  3  1  0
  3  4  2  0
  4  5  1  0
  5  6  2  0
  6  7  1  0
  7  8  2  0
  8  9  1  0
  7 10  1  0
 10 11  1  0
  5 12  1  0
 12 13  2  0
 12 14  1  0
 14 15  1  0
 15 16  1  0
 16 17  1  0
 17 18  1  0
 18 19  1  0
 19 20  2  3
 20 21  1  0
 20 22  1  0
  8  3  1  0
  1 23  1  0
  1 24  1  0
  1 25  1  0
  4 26  1  0
  6 27  1  0
  9 28  1  0
 11 29  1  0
 11 30  1  0
 11 31  1  0
 15 32  1  0
 15 33  1  0
 16 34  1  0
 16 35  1  0
 17 36  1  0
 17 37  1  0
 18 38  1  0
 18 39  1  0
 21 40  1  0
 21 41  1  0
 22 42  1  0
 22 43  1  0
M  END
$$$$
leonurine.sdf
     RDKit          3D

 43 43  0  0  0  0  0  0  0  0999 V2000
   -2.4714    4.6205   -1.2884 C   0  0  0  0  0  0  0  0  0  0  0  0
   -3.6231    3.9027   -0.8593 O   0  0  0  0  0  0  0  0  0  0  0  0
   -3.4359    2.5966   -0.4813 C   0  0  0  0  0  0  0  0  0  0  0  0
   -2.2252    1.9072   -0.4909 C   0  0  0  0  0  0  0  0  0  0  0  0
   -2.1815    0.5665   -0.0752 C   0  0  0  0  0  0  0  0  0  0  0  0
   -3.3541   -0.0807    0.3519 C   0  0  0  0  0  0  0  0  0  0  0  0
   -4.5730    0.5981    0.3661 C   0  0  0  0  0  0  0  0  0  0  0  0
   -4.5965    1.9335   -0.0537 C   0  0  0  0  0  0  0  0  0  0  0  0
   -5.7853    2.6241   -0.0497 O   0  0  0  0  0  0  0  0  0  0  0  0
   -5.7690    0.0621    0.7608 O   0  0  0  0  0  0  0  0  0  0  0  0
   -5.7701   -1.2866    1.2076 C   0  0  0  0  0  0  0  0  0  0  0  0
   -0.9157   -0.2186   -0.0648 C   0  0  0  0  0  0  0  0  0  0  0  0
   -0.8458   -1.3756    0.3173 O   0  0  0  0  0  0  0  0  0  0  0  0
    0.1161    0.5279   -0.5318 O   0  0  0  0  0  0  0  0  0  0  0  0
    1.3950   -0.1277   -0.5612 C   0  0  0  0  0  0  0  0  0  0  0  0
    2.0950    0.0458    0.7834 C   0  0  0  0  0  0  0  0  0  0  0  0
    3.5125   -0.5236    0.8069 C   0  0  0  0  0  0  0  0  0  0  0  0
    3.5517   -2.0488    0.7236 C   0  0  0  0  0  0  0  0  0  0  0  0
    4.9272   -2.5046    0.9008 N   0  0  0  0  0  0  0  0  0  0  0  0
    5.6653   -2.7380   -0.1139 C   0  0  0  0  0  0  0  0  0  0  0  0
    5.4111   -2.6052   -1.4337 N   0  0  0  0  0  0  0  0  0  0  0  0
    6.9234   -3.1950    0.0657 N   0  0  0  0  0  0  0  0  0  0  0  0
   -1.7314    4.6954   -0.4848 H   0  0  0  0  0  0  0  0  0  0  0  0
   -2.0377    4.1688   -2.1866 H   0  0  0  0  0  0  0  0  0  0  0  0
   -2.7878    5.6359   -1.5457 H   0  0  0  0  0  0  0  0  0  0  0  0
   -1.3114    2.3924   -0.8154 H   0  0  0  0  0  0  0  0  0  0  0  0
   -3.2861   -1.1179    0.6681 H   0  0  0  0  0  0  0  0  0  0  0  0
   -5.5678    3.5184   -0.3723 H   0  0  0  0  0  0  0  0  0  0  0  0
   -6.7956   -1.5452    1.4885 H   0  0  0  0  0  0  0  0  0  0  0  0
   -5.4628   -1.9677    0.4073 H   0  0  0  0  0  0  0  0  0  0  0  0
   -5.1412   -1.4092    2.0956 H   0  0  0  0  0  0  0  0  0  0  0  0
    1.9786    0.3557   -1.3522 H   0  0  0  0  0  0  0  0  0  0  0  0
    1.2847   -1.1802   -0.8441 H   0  0  0  0  0  0  0  0  0  0  0  0
    1.4944   -0.4062    1.5819 H   0  0  0  0  0  0  0  0  0  0  0  0
    2.1368    1.1167    1.0198 H   0  0  0  0  0  0  0  0  0  0  0  0
    4.1024   -0.0872   -0.0084 H   0  0  0  0  0  0  0  0  0  0  0  0
    3.9970   -0.2063    1.7393 H   0  0  0  0  0  0  0  0  0  0  0  0
    3.1087   -2.4170   -0.2074 H   0  0  0  0  0  0  0  0  0  0  0  0
    2.9493   -2.4759    1.5338 H   0  0  0  0  0  0  0  0  0  0  0  0
    6.2293   -2.2970   -1.9466 H   0  0  0  0  0  0  0  0  0  0  0  0
    4.6139   -2.0210   -1.6454 H   0  0  0  0  0  0  0  0  0  0  0  0
    7.1202   -4.0006   -0.5158 H   0  0  0  0  0  0  0  0  0  0  0  0
    7.0556   -3.4325    1.0450 H   0  0  0  0  0  0  0  0  0  0  0  0
  1  2  1  0
  2  3  1  0
  3  4  2  0
  4  5  1  0
  5  6  2  0
  6  7  1  0
  7  8  2  0
  8  9  1  0
  7 10  1  0
 10 11  1  0
  5 12  1  0
 12 13  2  0
 12 14  1  0
 14 15  1  0
 15 16  1  0
 16 17  1  0
 17 18  1  0
 18 19  1  0
 19 20  2  3
 20 21  1  0
 20 22  1  0
  8  3  1  0
  1 23  1  0
  1 24  1  0
  1 25  1  0
  4 26  1  0
  6 27  1  0
  9 28  1  0
 11 29  1  0
 11 30  1  0
 11 31  1  0
 15 32  1  0
 15 33  1  0
 16 34  1  0
 16 35  1  0
 17 36  1  0
 17 37  1  0
 18 38  1  0
 18 39  1  0
 21 40  1  0
 21 41  1  0
 22 42  1  0
 22 43  1  0
M  END
$$$$
leonurine.sdf
     RDKit          3D

 43 43  0  0  0  0  0  0  0  0999 V2000
   -2.6256    4.8155   -1.7604 C   0  0  0  0  0  0  0  0  0  0  0  0
   -3.7052    4.0577   -1.2246 O   0  0  0  0  0  0  0  0  0  0  0  0
   -3.3874    2.8586   -0.6379 C   0  0  0  0  0  0  0  0  0  0  0  0
   -2.1093    2.3203   -0.5163 C   0  0  0  0  0  0  0  0  0  0  0  0
   -1.9270    1.0767    0.1108 C   0  0  0  0  0  0  0  0  0  0  0  0
   -3.0319    0.3707    0.6171 C   0  0  0  0  0  0  0  0  0  0  0  0
   -4.3191    0.8993    0.5015 C   0  0  0  0  0  0  0  0  0  0  0  0
   -4.4788    2.1411   -0.1266 C   0  0  0  0  0  0  0  0  0  0  0  0
   -5.7373    2.6805   -0.2509 O   0  0  0  0  0  0  0  0  0  0  0  0
   -5.4616    0.2985    0.9579 O   0  0  0  0  0  0  0  0  0  0  0  0
   -5.3352   -0.9665    1.5913 C   0  0  0  0  0  0  0  0  0  0  0  0
   -0.5370    0.5513    0.2116 C   0  0  0  0  0  0  0  0  0  0  0  0
    0.4365    1.1434   -0.2277 O   0  0  0  0  0  0  0  0  0  0  0  0
   -0.5212   -0.6487    0.8428 O   0  0  0  0  0  0  0  0  0  0  0  0
    0.7741   -1.2531    0.9979 C   0  0  0  0  0  0  0  0  0  0  0  0
    1.1185   -2.0640   -0.2484 C   0  0  0  0  0  0  0  0  0  0  0  0
    2.4614   -2.7850   -0.1494 C   0  0  0  0  0  0  0  0  0  0  0  0
    3.6557   -1.8303   -0.1549 C   0  0  0  0  0  0  0  0  0  0  0  0
    4.8760   -2.6323   -0.1401 N   0  0  0  0  0  0  0  0  0  0  0  0
    5.9980   -2.0206   -0.1006 C   0  0  0  0  0  0  0  0  0  0  0  0
    6.2671   -0.6968   -0.0747 N   0  0  0  0  0  0  0  0  0  0  0  0
    7.1484   -2.7263   -0.0667 N   0  0  0  0  0  0  0  0  0  0  0  0
   -1.9197    5.1054   -0.9752 H   0  0  0  0  0  0  0  0  0  0  0  0
   -2.1224    4.2700   -2.5655 H   0  0  0  0  0  0  0  0  0  0  0  0
   -3.0421    5.7322   -2.1888 H   0  0  0  0  0  0  0  0  0  0  0  0
   -1.2371    2.8427   -0.8982 H   0  0  0  0  0  0  0  0  0  0  0  0
   -2.8706   -0.5883    1.0975 H   0  0  0  0  0  0  0  0  0  0  0  0
   -5.6105    3.5311   -0.7116 H   0  0  0  0  0  0  0  0  0  0  0  0
   -4.9277   -1.7140    0.9027 H   0  0  0  0  0  0  0  0  0  0  0  0
   -6.3367   -1.2958    1.8845 H   0  0  0  0  0  0  0  0  0  0  0  0
   -4.7295   -0.8938    2.5005 H   0  0  0  0  0  0  0  0  0  0  0  0
    0.7133   -1.9138    1.8695 H   0  0  0  0  0  0  0  0  0  0  0  0
    1.5267   -0.4910    1.2266 H   0  0  0  0  0  0  0  0  0  0  0  0
    1.1037   -1.4193   -1.1354 H   0  0  0  0  0  0  0  0  0  0  0  0
    0.3253   -2.8044   -0.4127 H   0  0  0  0  0  0  0  0  0  0  0  0
    2.5509   -3.4720   -1.0006 H   0  0  0  0  0  0  0  0  0  0  0  0
    2.4858   -3.4087    0.7529 H   0  0  0  0  0  0  0  0  0  0  0  0
    3.6217   -1.1809    0.7265 H   0  0  0  0  0  0  0  0  0  0  0  0
    3.6188   -1.2077   -1.0567 H   0  0  0  0  0  0  0  0  0  0  0  0
    5.4869   -0.1096   -0.3414 H   0  0  0  0  0  0  0  0  0  0  0  0
    7.0898   -0.4668   -0.6203 H   0  0  0  0  0  0  0  0  0  0  0  0
    7.7770   -2.3950    0.6547 H   0  0  0  0  0  0  0  0  0  0  0  0
    6.9371   -3.7100    0.0738 H   0  0  0  0  0  0  0  0  0  0  0  0
  1  2  1  0
  2  3  1  0
  3  4  2  0
  4  5  1  0
  5  6  2  0
  6  7  1  0
  7  8  2  0
  8  9  1  0
  7 10  1  0
 10 11  1  0
  5 12  1  0
 12 13  2  0
 12 14  1  0
 14 15  1  0
 15 16  1  0
 16 17  1  0
 17 18  1  0
 18 19  1  0
 19 20  2  3
 20 21  1  0
 20 22  1  0
  8  3  1  0
  1 23  1  0
  1 24  1  0
  1 25  1  0
  4 26  1  0
  6 27  1  0
  9 28  1  0
 11 29  1  0
 11 30  1  0
 11 31  1  0
 15 32  1  0
 15 33  1  0
 16 34  1  0
 16 35  1  0
 17 36  1  0
 17 37  1  0
 18 38  1  0
 18 39  1  0
 21 40  1  0
 21 41  1  0
 22 42  1  0
 22 43  1  0
M  END
$$$$
leonurine.sdf
     RDKit          3D

 43 43  0  0  0  0  0  0  0  0999 V2000
   -1.8989    4.0843   -1.7809 C   0  0  0  0  0  0  0  0  0  0  0  0
   -3.0065    3.2042   -1.6542 O   0  0  0  0  0  0  0  0  0  0  0  0
   -2.8564    2.1040   -0.8532 C   0  0  0  0  0  0  0  0  0  0  0  0
   -1.7178    1.8068   -0.1016 C   0  0  0  0  0  0  0  0  0  0  0  0
   -1.6736    0.6465    0.6903 C   0  0  0  0  0  0  0  0  0  0  0  0
   -2.7734   -0.2264    0.7283 C   0  0  0  0  0  0  0  0  0  0  0  0
   -3.9155    0.0594   -0.0146 C   0  0  0  0  0  0  0  0  0  0  0  0
   -3.9445    1.2237   -0.7963 C   0  0  0  0  0  0  0  0  0  0  0  0
   -5.0770    1.4984   -1.5259 O   0  0  0  0  0  0  0  0  0  0  0  0
   -5.0560   -0.7020   -0.0657 O   0  0  0  0  0  0  0  0  0  0  0  0
   -5.0639   -1.8972    0.7078 C   0  0  0  0  0  0  0  0  0  0  0  0
   -0.4799    0.2896    1.5064 C   0  0  0  0  0  0  0  0  0  0  0  0
   -0.3788   -0.7638    2.1151 O   0  0  0  0  0  0  0  0  0  0  0  0
    0.4368    1.2867    1.4709 O   0  0  0  0  0  0  0  0  0  0  0  0
    1.6518    1.0734    2.2055 C   0  0  0  0  0  0  0  0  0  0  0  0
    2.8275    0.9426    1.2410 C   0  0  0  0  0  0  0  0  0  0  0  0
    2.6989   -0.2728    0.3204 C   0  0  0  0  0  0  0  0  0  0  0  0
    3.9393   -0.4395   -0.5547 C   0  0  0  0  0  0  0  0  0  0  0  0
    3.7346   -1.5351   -1.4968 N   0  0  0  0  0  0  0  0  0  0  0  0
    4.0784   -2.7244   -1.1748 C   0  0  0  0  0  0  0  0  0  0  0  0
    4.6115   -3.1845   -0.0258 N   0  0  0  0  0  0  0  0  0  0  0  0
    3.9297   -3.7134   -2.0827 N   0  0  0  0  0  0  0  0  0  0  0  0
   -1.6535    4.5492   -0.8204 H   0  0  0  0  0  0  0  0  0  0  0  0
   -2.1830    4.8826   -2.4734 H   0  0  0  0  0  0  0  0  0  0  0  0
   -1.0305    3.5695   -2.2050 H   0  0  0  0  0  0  0  0  0  0  0  0
   -0.8560    2.4651   -0.1217 H   0  0  0  0  0  0  0  0  0  0  0  0
   -2.7086   -1.1170    1.3463 H   0  0  0  0  0  0  0  0  0  0  0  0
   -5.6898    0.7625   -1.3398 H   0  0  0  0  0  0  0  0  0  0  0  0
   -4.9649   -1.6762    1.7757 H   0  0  0  0  0  0  0  0  0  0  0  0
   -4.2851   -2.5897    0.3716 H   0  0  0  0  0  0  0  0  0  0  0  0
   -6.0314   -2.3855    0.5571 H   0  0  0  0  0  0  0  0  0  0  0  0
    1.7997    1.9557    2.8375 H   0  0  0  0  0  0  0  0  0  0  0  0
    1.5993    0.2064    2.8735 H   0  0  0  0  0  0  0  0  0  0  0  0
    3.7556    0.8741    1.8202 H   0  0  0  0  0  0  0  0  0  0  0  0
    2.8889    1.8466    0.6229 H   0  0  0  0  0  0  0  0  0  0  0  0
    2.5432   -1.1772    0.9206 H   0  0  0  0  0  0  0  0  0  0  0  0
    1.8161   -0.1651   -0.3215 H   0  0  0  0  0  0  0  0  0  0  0  0
    4.1042    0.4751   -1.1362 H   0  0  0  0  0  0  0  0  0  0  0  0
    4.8404   -0.5748    0.0552 H   0  0  0  0  0  0  0  0  0  0  0  0
    4.5235   -2.6013    0.7937 H   0  0  0  0  0  0  0  0  0  0  0  0
    4.5592   -4.1754    0.1544 H   0  0  0  0  0  0  0  0  0  0  0  0
    3.4477   -3.3494   -2.8996 H   0  0  0  0  0  0  0  0  0  0  0  0
    3.4588   -4.5359   -1.7348 H   0  0  0  0  0  0  0  0  0  0  0  0
  1  2  1  0
  2  3  1  0
  3  4  2  0
  4  5  1  0
  5  6  2  0
  6  7  1  0
  7  8  2  0
  8  9  1  0
  7 10  1  0
 10 11  1  0
  5 12  1  0
 12 13  2  0
 12 14  1  0
 14 15  1  0
 15 16  1  0
 16 17  1  0
 17 18  1  0
 18 19  1  0
 19 20  2  3
 20 21  1  0
 20 22  1  0
  8  3  1  0
  1 23  1  0
  1 24  1  0
  1 25  1  0
  4 26  1  0
  6 27  1  0
  9 28  1  0
 11 29  1  0
 11 30  1  0
 11 31  1  0
 15 32  1  0
 15 33  1  0
 16 34  1  0
 16 35  1  0
 17 36  1  0
 17 37  1  0
 18 38  1  0
 18 39  1  0
 21 40  1  0
 21 41  1  0
 22 42  1  0
 22 43  1  0
M  END
$$$$
leonurine.sdf
     RDKit          3D

 43 43  0  0  0  0  0  0  0  0999 V2000
   -1.4369    3.2174   -2.2194 C   0  0  0  0  0  0  0  0  0  0  0  0
   -2.7662    2.8353   -1.8962 O   0  0  0  0  0  0  0  0  0  0  0  0
   -2.9385    1.9063   -0.9054 C   0  0  0  0  0  0  0  0  0  0  0  0
   -1.9066    1.2687   -0.2140 C   0  0  0  0  0  0  0  0  0  0  0  0
   -2.1997    0.3262    0.7868 C   0  0  0  0  0  0  0  0  0  0  0  0
   -3.5338    0.0193    1.1008 C   0  0  0  0  0  0  0  0  0  0  0  0
   -4.5720    0.6472    0.4184 C   0  0  0  0  0  0  0  0  0  0  0  0
   -4.2619    1.5836   -0.5790 C   0  0  0  0  0  0  0  0  0  0  0  0
   -5.2937    2.1978   -1.2485 O   0  0  0  0  0  0  0  0  0  0  0  0
   -5.9130    0.4407    0.6232 O   0  0  0  0  0  0  0  0  0  0  0  0
   -6.2701   -0.4947    1.6356 C   0  0  0  0  0  0  0  0  0  0  0  0
   -1.1310   -0.3798    1.5466 C   0  0  0  0  0  0  0  0  0  0  0  0
   -1.3589   -1.1874    2.4333 O   0  0  0  0  0  0  0  0  0  0  0  0
    0.0951   -0.0032    1.1100 O   0  0  0  0  0  0  0  0  0  0  0  0
    1.1881   -0.6409    1.7849 C   0  0  0  0  0  0  0  0  0  0  0  0
    2.4984   -0.1708    1.1608 C   0  0  0  0  0  0  0  0  0  0  0  0
    2.6190   -0.5914   -0.3091 C   0  0  0  0  0  0  0  0  0  0  0  0
    3.9316   -0.1298   -0.9402 C   0  0  0  0  0  0  0  0  0  0  0  0
    5.0669   -0.7774   -0.2910 N   0  0  0  0  0  0  0  0  0  0  0  0
    5.5269   -1.8761   -0.7509 C   0  0  0  0  0  0  0  0  0  0  0  0
    5.1145   -2.6318   -1.7916 N   0  0  0  0  0  0  0  0  0  0  0  0
    6.5987   -2.4507   -0.1640 N   0  0  0  0  0  0  0  0  0  0  0  0
   -1.4884    3.9750   -3.0073 H   0  0  0  0  0  0  0  0  0  0  0  0
   -0.8671    2.3684   -2.6111 H   0  0  0  0  0  0  0  0  0  0  0  0
   -0.9340    3.6677   -1.3572 H   0  0  0  0  0  0  0  0  0  0  0  0
   -0.8699    1.4923   -0.4411 H   0  0  0  0  0  0  0  0  0  0  0  0
   -3.7291   -0.7124    1.8794 H   0  0  0  0  0  0  0  0  0  0  0  0
   -6.1097    1.8288   -0.8613 H   0  0  0  0  0  0  0  0  0  0  0  0
   -5.9126   -0.1684    2.6178 H   0  0  0  0  0  0  0  0  0  0  0  0
   -5.9039   -1.4975    1.3924 H   0  0  0  0  0  0  0  0  0  0  0  0
   -7.3627   -0.5401    1.6770 H   0  0  0  0  0  0  0  0  0  0  0  0
    1.1686   -0.3591    2.8440 H   0  0  0  0  0  0  0  0  0  0  0  0
    1.0968   -1.7300    1.6976 H   0  0  0  0  0  0  0  0  0  0  0  0
    3.3318   -0.5820    1.7411 H   0  0  0  0  0  0  0  0  0  0  0  0
    2.5565    0.9228    1.2217 H   0  0  0  0  0  0  0  0  0  0  0  0
    1.7902   -0.1602   -0.8830 H   0  0  0  0  0  0  0  0  0  0  0  0
    2.5297   -1.6816   -0.3859 H   0  0  0  0  0  0  0  0  0  0  0  0
    4.0391    0.9546   -0.8211 H   0  0  0  0  0  0  0  0  0  0  0  0
    3.9164   -0.3090   -2.0216 H   0  0  0  0  0  0  0  0  0  0  0  0
    4.1762   -2.4246   -2.1080 H   0  0  0  0  0  0  0  0  0  0  0  0
    5.2168   -3.6227   -1.6038 H   0  0  0  0  0  0  0  0  0  0  0  0
    7.3015   -2.7236   -0.8403 H   0  0  0  0  0  0  0  0  0  0  0  0
    6.9968   -1.8070    0.5139 H   0  0  0  0  0  0  0  0  0  0  0  0
  1  2  1  0
  2  3  1  0
  3  4  2  0
  4  5  1  0
  5  6  2  0
  6  7  1  0
  7  8  2  0
  8  9  1  0
  7 10  1  0
 10 11  1  0
  5 12  1  0
 12 13  2  0
 12 14  1  0
 14 15  1  0
 15 16  1  0
 16 17  1  0
 17 18  1  0
 18 19  1  0
 19 20  2  3
 20 21  1  0
 20 22  1  0
  8  3  1  0
  1 23  1  0
  1 24  1  0
  1 25  1  0
  4 26  1  0
  6 27  1  0
  9 28  1  0
 11 29  1  0
 11 30  1  0
 11 31  1  0
 15 32  1  0
 15 33  1  0
 16 34  1  0
 16 35  1  0
 17 36  1  0
 17 37  1  0
 18 38  1  0
 18 39  1  0
 21 40  1  0
 21 41  1  0
 22 42  1  0
 22 43  1  0
M  END
$$$$
leonurine.sdf
     RDKit          3D

 43 43  0  0  0  0  0  0  0  0999 V2000
   -2.5230    3.6600   -2.5070 C   0  0  0  0  0  0  0  0  0  0  0  0
   -3.6039    3.3963   -1.6193 O   0  0  0  0  0  0  0  0  0  0  0  0
   -3.4925    2.2883   -0.8169 C   0  0  0  0  0  0  0  0  0  0  0  0
   -2.4136    1.4073   -0.7833 C   0  0  0  0  0  0  0  0  0  0  0  0
   -2.4350    0.3096    0.0925 C   0  0  0  0  0  0  0  0  0  0  0  0
   -3.5414    0.0966    0.9333 C   0  0  0  0  0  0  0  0  0  0  0  0
   -4.6280    0.9715    0.9098 C   0  0  0  0  0  0  0  0  0  0  0  0
   -4.5872    2.0607    0.0311 C   0  0  0  0  0  0  0  0  0  0  0  0
   -5.6453    2.9376   -0.0104 O   0  0  0  0  0  0  0  0  0  0  0  0
   -5.7498    0.8559    1.6857 O   0  0  0  0  0  0  0  0  0  0  0  0
   -5.8229   -0.2491    2.5757 C   0  0  0  0  0  0  0  0  0  0  0  0
   -1.3094   -0.6630    0.1713 C   0  0  0  0  0  0  0  0  0  0  0  0
   -1.3159   -1.6386    0.9044 O   0  0  0  0  0  0  0  0  0  0  0  0
   -0.3049   -0.3009   -0.6647 O   0  0  0  0  0  0  0  0  0  0  0  0
    0.8397   -1.1717   -0.6838 C   0  0  0  0  0  0  0  0  0  0  0  0
    1.8186   -0.7634    0.4142 C   0  0  0  0  0  0  0  0  0  0  0  0
    3.0666   -1.6430    0.4742 C   0  0  0  0  0  0  0  0  0  0  0  0
    3.9770   -1.4799   -0.7417 C   0  0  0  0  0  0  0  0  0  0  0  0
    5.1515   -2.3328   -0.5915 N   0  0  0  0  0  0  0  0  0  0  0  0
    6.2152   -1.8699   -0.0580 C   0  0  0  0  0  0  0  0  0  0  0  0
    6.4743   -0.6514    0.4645 N   0  0  0  0  0  0  0  0  0  0  0  0
    7.3095   -2.6544    0.0442 N   0  0  0  0  0  0  0  0  0  0  0  0
   -2.3931    2.8426   -3.2239 H   0  0  0  0  0  0  0  0  0  0  0  0
   -2.7690    4.5636   -3.0729 H   0  0  0  0  0  0  0  0  0  0  0  0
   -1.5979    3.8543   -1.9544 H   0  0  0  0  0  0  0  0  0  0  0  0
   -1.5534    1.5563   -1.4264 H   0  0  0  0  0  0  0  0  0  0  0  0
   -3.5270   -0.7621    1.5986 H   0  0  0  0  0  0  0  0  0  0  0  0
   -5.4052    3.6031   -0.6819 H   0  0  0  0  0  0  0  0  0  0  0  0
   -6.7786   -0.1893    3.1054 H   0  0  0  0  0  0  0  0  0  0  0  0
   -5.8041   -1.1981    2.0299 H   0  0  0  0  0  0  0  0  0  0  0  0
   -5.0248   -0.2065    3.3241 H   0  0  0  0  0  0  0  0  0  0  0  0
    1.2962   -1.0539   -1.6712 H   0  0  0  0  0  0  0  0  0  0  0  0
    0.5377   -2.2217   -0.5915 H   0  0  0  0  0  0  0  0  0  0  0  0
    2.1008    0.2885    0.2819 H   0  0  0  0  0  0  0  0  0  0  0  0
    1.3095   -0.8089    1.3848 H   0  0  0  0  0  0  0  0  0  0  0  0
    3.6264   -1.3858    1.3819 H   0  0  0  0  0  0  0  0  0  0  0  0
    2.7751   -2.6952    0.5823 H   0  0  0  0  0  0  0  0  0  0  0  0
    3.4547   -1.8009   -1.6492 H   0  0  0  0  0  0  0  0  0  0  0  0
    4.2406   -0.4279   -0.9014 H   0  0  0  0  0  0  0  0  0  0  0  0
    5.6464   -0.1127    0.6828 H   0  0  0  0  0  0  0  0  0  0  0  0
    7.0812   -0.7119    1.2745 H   0  0  0  0  0  0  0  0  0  0  0  0
    8.1457   -2.1869   -0.2842 H   0  0  0  0  0  0  0  0  0  0  0  0
    7.1590   -3.5124   -0.4789 H   0  0  0  0  0  0  0  0  0  0  0  0
  1  2  1  0
  2  3  1  0
  3  4  2  0
  4  5  1  0
  5  6  2  0
  6  7  1  0
  7  8  2  0
  8  9  1  0
  7 10  1  0
 10 11  1  0
  5 12  1  0
 12 13  2  0
 12 14  1  0
 14 15  1  0
 15 16  1  0
 16 17  1  0
 17 18  1  0
 18 19  1  0
 19 20  2  3
 20 21  1  0
 20 22  1  0
  8  3  1  0
  1 23  1  0
  1 24  1  0
  1 25  1  0
  4 26  1  0
  6 27  1  0
  9 28  1  0
 11 29  1  0
 11 30  1  0
 11 31  1  0
 15 32  1  0
 15 33  1  0
 16 34  1  0
 16 35  1  0
 17 36  1  0
 17 37  1  0
 18 38  1  0
 18 39  1  0
 21 40  1  0
 21 41  1  0
 22 42  1  0
 22 43  1  0
M  END
$$$$
leonurine.sdf
     RDKit          3D

 43 43  0  0  0  0  0  0  0  0999 V2000
   -5.0092    3.9147   -2.7539 C   0  0  0  0  0  0  0  0  0  0  0  0
   -5.3622    3.2745   -1.5357 O   0  0  0  0  0  0  0  0  0  0  0  0
   -4.4177    2.4837   -0.9387 C   0  0  0  0  0  0  0  0  0  0  0  0
   -3.1329    2.2550   -1.4323 C   0  0  0  0  0  0  0  0  0  0  0  0
   -2.2390    1.4219   -0.7371 C   0  0  0  0  0  0  0  0  0  0  0  0
   -2.6315    0.8102    0.4646 C   0  0  0  0  0  0  0  0  0  0  0  0
   -3.9116    1.0305    0.9684 C   0  0  0  0  0  0  0  0  0  0  0  0
   -4.7904    1.8649    0.2606 C   0  0  0  0  0  0  0  0  0  0  0  0
   -6.0510    2.0744    0.7679 O   0  0  0  0  0  0  0  0  0  0  0  0
   -4.4251    0.4995    2.1254 O   0  0  0  0  0  0  0  0  0  0  0  0
   -3.5686   -0.3519    2.8784 C   0  0  0  0  0  0  0  0  0  0  0  0
   -0.8835    1.2220   -1.3214 C   0  0  0  0  0  0  0  0  0  0  0  0
   -0.5146    1.7459   -2.3603 O   0  0  0  0  0  0  0  0  0  0  0  0
   -0.1438    0.3921   -0.5448 O   0  0  0  0  0  0  0  0  0  0  0  0
    1.1806    0.1472   -1.0397 C   0  0  0  0  0  0  0  0  0  0  0  0
    1.8774   -0.7963   -0.0661 C   0  0  0  0  0  0  0  0  0  0  0  0
    3.3011   -1.1132   -0.5132 C   0  0  0  0  0  0  0  0  0  0  0  0
    3.9972   -2.0592    0.4637 C   0  0  0  0  0  0  0  0  0  0  0  0
    5.3453   -2.3109   -0.0340 N   0  0  0  0  0  0  0  0  0  0  0  0
    6.1339   -3.0194    0.6798 C   0  0  0  0  0  0  0  0  0  0  0  0
    7.3955   -3.2527    0.2598 N   0  0  0  0  0  0  0  0  0  0  0  0
    5.9255   -3.6189    1.8725 N   0  0  0  0  0  0  0  0  0  0  0  0
   -5.8721    4.4996   -3.0868 H   0  0  0  0  0  0  0  0  0  0  0  0
   -4.1741    4.6078   -2.6083 H   0  0  0  0  0  0  0  0  0  0  0  0
   -4.7837    3.1810   -3.5347 H   0  0  0  0  0  0  0  0  0  0  0  0
   -2.7980    2.7130   -2.3587 H   0  0  0  0  0  0  0  0  0  0  0  0
   -1.9295    0.1709    0.9882 H   0  0  0  0  0  0  0  0  0  0  0  0
   -6.0887    1.5555    1.5929 H   0  0  0  0  0  0  0  0  0  0  0  0
   -3.2908   -1.2408    2.3024 H   0  0  0  0  0  0  0  0  0  0  0  0
   -2.6823    0.1886    3.2266 H   0  0  0  0  0  0  0  0  0  0  0  0
   -4.1226   -0.6865    3.7607 H   0  0  0  0  0  0  0  0  0  0  0  0
    1.1203   -0.3122   -2.0333 H   0  0  0  0  0  0  0  0  0  0  0  0
    1.7275    1.0951   -1.1043 H   0  0  0  0  0  0  0  0  0  0  0  0
    1.8841   -0.3454    0.9342 H   0  0  0  0  0  0  0  0  0  0  0  0
    1.2926   -1.7202    0.0254 H   0  0  0  0  0  0  0  0  0  0  0  0
    3.8789   -0.1843   -0.5987 H   0  0  0  0  0  0  0  0  0  0  0  0
    3.2845   -1.5656   -1.5128 H   0  0  0  0  0  0  0  0  0  0  0  0
    4.0304   -1.5976    1.4579 H   0  0  0  0  0  0  0  0  0  0  0  0
    3.4334   -2.9974    0.5283 H   0  0  0  0  0  0  0  0  0  0  0  0
    8.0779   -3.0770    0.9871 H   0  0  0  0  0  0  0  0  0  0  0  0
    7.5926   -2.6757   -0.5531 H   0  0  0  0  0  0  0  0  0  0  0  0
    4.9503   -3.7066    2.1263 H   0  0  0  0  0  0  0  0  0  0  0  0
    6.3941   -4.5160    1.9314 H   0  0  0  0  0  0  0  0  0  0  0  0
  1  2  1  0
  2  3  1  0
  3  4  2  0
  4  5  1  0
  5  6  2  0
  6  7  1  0
  7  8  2  0
  8  9  1  0
  7 10  1  0
 10 11  1  0
  5 12  1  0
 12 13  2  0
 12 14  1  0
 14 15  1  0
 15 16  1  0
 16 17  1  0
 17 18  1  0
 18 19  1  0
 19 20  2  3
 20 21  1  0
 20 22  1  0
  8  3  1  0
  1 23  1  0
  1 24  1  0
  1 25  1  0
  4 26  1  0
  6 27  1  0
  9 28  1  0
 11 29  1  0
 11 30  1  0
 11 31  1  0
 15 32  1  0
 15 33  1  0
 16 34  1  0
 16 35  1  0
 17 36  1  0
 17 37  1  0
 18 38  1  0
 18 39  1  0
 21 40  1  0
 21 41  1  0
 22 42  1  0
 22 43  1  0
M  END
$$$$
leonurine.sdf
     RDKit          3D

 43 43  0  0  0  0  0  0  0  0999 V2000
    0.4442    2.5429   -1.5173 C   0  0  0  0  0  0  0  0  0  0  0  0
   -0.9590    2.7023   -1.3398 O   0  0  0  0  0  0  0  0  0  0  0  0
   -1.6110    1.7445   -0.6096 C   0  0  0  0  0  0  0  0  0  0  0  0
   -1.0523    0.5307   -0.2109 C   0  0  0  0  0  0  0  0  0  0  0  0
   -1.8071   -0.3861    0.5417 C   0  0  0  0  0  0  0  0  0  0  0  0
   -3.1264   -0.0886    0.9109 C   0  0  0  0  0  0  0  0  0  0  0  0
   -3.7005    1.1147    0.5085 C   0  0  0  0  0  0  0  0  0  0  0  0
   -2.9376    2.0160   -0.2524 C   0  0  0  0  0  0  0  0  0  0  0  0
   -3.5155    3.2008   -0.6429 O   0  0  0  0  0  0  0  0  0  0  0  0
   -4.9787    1.5302    0.7877 O   0  0  0  0  0  0  0  0  0  0  0  0
   -5.7733    0.6621    1.5889 C   0  0  0  0  0  0  0  0  0  0  0  0
   -1.2229   -1.6736    0.9996 C   0  0  0  0  0  0  0  0  0  0  0  0
   -1.6426   -2.3140    1.9483 O   0  0  0  0  0  0  0  0  0  0  0  0
   -0.1803   -2.0008    0.2026 O   0  0  0  0  0  0  0  0  0  0  0  0
    0.6252   -3.1117    0.6142 C   0  0  0  0  0  0  0  0  0  0  0  0
    1.7166   -2.6620    1.5872 C   0  0  0  0  0  0  0  0  0  0  0  0
    2.3520   -1.3039    1.2677 C   0  0  0  0  0  0  0  0  0  0  0  0
    2.9345   -1.1957   -0.1418 C   0  0  0  0  0  0  0  0  0  0  0  0
    3.3440    0.1913   -0.3494 N   0  0  0  0  0  0  0  0  0  0  0  0
    3.8583    0.5135   -1.4739 C   0  0  0  0  0  0  0  0  0  0  0  0
    4.1018   -0.2397   -2.5678 N   0  0  0  0  0  0  0  0  0  0  0  0
    4.2530    1.7863   -1.6900 N   0  0  0  0  0  0  0  0  0  0  0  0
    0.8200    3.4363   -2.0253 H   0  0  0  0  0  0  0  0  0  0  0  0
    0.9614    2.4650   -0.5551 H   0  0  0  0  0  0  0  0  0  0  0  0
    0.6624    1.6813   -2.1565 H   0  0  0  0  0  0  0  0  0  0  0  0
   -0.0267    0.2853   -0.4678 H   0  0  0  0  0  0  0  0  0  0  0  0
   -3.6748   -0.8132    1.5051 H   0  0  0  0  0  0  0  0  0  0  0  0
   -4.4209    3.1782   -0.2805 H   0  0  0  0  0  0  0  0  0  0  0  0
   -5.3256    0.5175    2.5777 H   0  0  0  0  0  0  0  0  0  0  0  0
   -6.7479    1.1388    1.7311 H   0  0  0  0  0  0  0  0  0  0  0  0
   -5.9410   -0.2953    1.0848 H   0  0  0  0  0  0  0  0  0  0  0  0
    0.0156   -3.9151    1.0442 H   0  0  0  0  0  0  0  0  0  0  0  0
    1.0841   -3.5210   -0.2924 H   0  0  0  0  0  0  0  0  0  0  0  0
    1.2777   -2.5878    2.5902 H   0  0  0  0  0  0  0  0  0  0  0  0
    2.4893   -3.4374    1.6440 H   0  0  0  0  0  0  0  0  0  0  0  0
    1.6085   -0.5114    1.4198 H   0  0  0  0  0  0  0  0  0  0  0  0
    3.1450   -1.1059    2.0004 H   0  0  0  0  0  0  0  0  0  0  0  0
    3.7900   -1.8745   -0.2368 H   0  0  0  0  0  0  0  0  0  0  0  0
    2.1828   -1.4701   -0.8886 H   0  0  0  0  0  0  0  0  0  0  0  0
    3.6252   -1.1319   -2.5790 H   0  0  0  0  0  0  0  0  0  0  0  0
    3.9406    0.2681   -3.4302 H   0  0  0  0  0  0  0  0  0  0  0  0
    4.2330    2.3004   -0.8135 H   0  0  0  0  0  0  0  0  0  0  0  0
    5.1789    1.8333   -2.0985 H   0  0  0  0  0  0  0  0  0  0  0  0
  1  2  1  0
  2  3  1  0
  3  4  2  0
  4  5  1  0
  5  6  2  0
  6  7  1  0
  7  8  2  0
  8  9  1  0
  7 10  1  0
 10 11  1  0
  5 12  1  0
 12 13  2  0
 12 14  1  0
 14 15  1  0
 15 16  1  0
 16 17  1  0
 17 18  1  0
 18 19  1  0
 19 20  2  3
 20 21  1  0
 20 22  1  0
  8  3  1  0
  1 23  1  0
  1 24  1  0
  1 25  1  0
  4 26  1  0
  6 27  1  0
  9 28  1  0
 11 29  1  0
 11 30  1  0
 11 31  1  0
 15 32  1  0
 15 33  1  0
 16 34  1  0
 16 35  1  0
 17 36  1  0
 17 37  1  0
 18 38  1  0
 18 39  1  0
 21 40  1  0
 21 41  1  0
 22 42  1  0
 22 43  1  0
M  END
$$$$
leonurine.sdf
     RDKit          3D

 43 43  0  0  0  0  0  0  0  0999 V2000
   -2.1137    4.9395    0.3850 C   0  0  0  0  0  0  0  0  0  0  0  0
   -3.3397    4.2292    0.2871 O   0  0  0  0  0  0  0  0  0  0  0  0
   -3.3031    2.8702    0.4495 C   0  0  0  0  0  0  0  0  0  0  0  0
   -2.1497    2.1204    0.6888 C   0  0  0  0  0  0  0  0  0  0  0  0
   -2.2292    0.7251    0.8390 C   0  0  0  0  0  0  0  0  0  0  0  0
   -3.4705    0.0738    0.7495 C   0  0  0  0  0  0  0  0  0  0  0  0
   -4.6280    0.8096    0.5113 C   0  0  0  0  0  0  0  0  0  0  0  0
   -4.5306    2.2010    0.3632 C   0  0  0  0  0  0  0  0  0  0  0  0
   -5.6788    2.9195    0.1274 O   0  0  0  0  0  0  0  0  0  0  0  0
   -5.8981    0.3020    0.4013 O   0  0  0  0  0  0  0  0  0  0  0  0
   -6.0410   -1.1064    0.5540 C   0  0  0  0  0  0  0  0  0  0  0  0
   -1.0257   -0.1149    1.0927 C   0  0  0  0  0  0  0  0  0  0  0  0
   -1.0711   -1.3290    1.2114 O   0  0  0  0  0  0  0  0  0  0  0  0
    0.0892    0.6527    1.1630 O   0  0  0  0  0  0  0  0  0  0  0  0
    1.3187   -0.0483    1.4132 C   0  0  0  0  0  0  0  0  0  0  0  0
    1.9150   -0.5404    0.0984 C   0  0  0  0  0  0  0  0  0  0  0  0
    3.2662   -1.2151    0.3160 C   0  0  0  0  0  0  0  0  0  0  0  0
    3.8547   -1.7243   -0.9984 C   0  0  0  0  0  0  0  0  0  0  0  0
    5.1530   -2.3255   -0.7107 N   0  0  0  0  0  0  0  0  0  0  0  0
    5.8423   -2.7741   -1.6892 C   0  0  0  0  0  0  0  0  0  0  0  0
    5.5632   -2.7997   -3.0109 N   0  0  0  0  0  0  0  0  0  0  0  0
    7.0572   -3.3179   -1.4634 N   0  0  0  0  0  0  0  0  0  0  0  0
   -2.3298    6.0023    0.2390 H   0  0  0  0  0  0  0  0  0  0  0  0
   -1.4154    4.6314   -0.4000 H   0  0  0  0  0  0  0  0  0  0  0  0
   -1.6685    4.8242    1.3787 H   0  0  0  0  0  0  0  0  0  0  0  0
   -1.1819    2.6046    0.7605 H   0  0  0  0  0  0  0  0  0  0  0  0
   -3.5009   -1.0053    0.8696 H   0  0  0  0  0  0  0  0  0  0  0  0
   -6.3978    2.2603    0.1095 H   0  0  0  0  0  0  0  0  0  0  0  0
   -5.7278   -1.4285    1.5526 H   0  0  0  0  0  0  0  0  0  0  0  0
   -5.4942   -1.6448   -0.2270 H   0  0  0  0  0  0  0  0  0  0  0  0
   -7.1026   -1.3476    0.4440 H   0  0  0  0  0  0  0  0  0  0  0  0
    1.9974    0.6674    1.8898 H   0  0  0  0  0  0  0  0  0  0  0  0
    1.1662   -0.8684    2.1250 H   0  0  0  0  0  0  0  0  0  0  0  0
    2.0199    0.3065   -0.5912 H   0  0  0  0  0  0  0  0  0  0  0  0
    1.2200   -1.2368   -0.3859 H   0  0  0  0  0  0  0  0  0  0  0  0
    3.9635   -0.5067    0.7808 H   0  0  0  0  0  0  0  0  0  0  0  0
    3.1559   -2.0525    1.0165 H   0  0  0  0  0  0  0  0  0  0  0  0
    3.9640   -0.8877   -1.6990 H   0  0  0  0  0  0  0  0  0  0  0  0
    3.1772   -2.4667   -1.4369 H   0  0  0  0  0  0  0  0  0  0  0  0
    4.5874   -2.6463   -3.2300 H   0  0  0  0  0  0  0  0  0  0  0  0
    5.8996   -3.6485   -3.4514 H   0  0  0  0  0  0  0  0  0  0  0  0
    7.3258   -3.1544   -0.4973 H   0  0  0  0  0  0  0  0  0  0  0  0
    7.7617   -2.9496   -2.0907 H   0  0  0  0  0  0  0  0  0  0  0  0
  1  2  1  0
  2  3  1  0
  3  4  2  0
  4  5  1  0
  5  6  2  0
  6  7  1  0
  7  8  2  0
  8  9  1  0
  7 10  1  0
 10 11  1  0
  5 12  1  0
 12 13  2  0
 12 14  1  0
 14 15  1  0
 15 16  1  0
 16 17  1  0
 17 18  1  0
 18 19  1  0
 19 20  2  3
 20 21  1  0
 20 22  1  0
  8  3  1  0
  1 23  1  0
  1 24  1  0
  1 25  1  0
  4 26  1  0
  6 27  1  0
  9 28  1  0
 11 29  1  0
 11 30  1  0
 11 31  1  0
 15 32  1  0
 15 33  1  0
 16 34  1  0
 16 35  1  0
 17 36  1  0
 17 37  1  0
 18 38  1  0
 18 39  1  0
 21 40  1  0
 21 41  1  0
 22 42  1  0
 22 43  1  0
M  END
$$$$
leonurine.sdf
     RDKit          3D

 43 43  0  0  0  0  0  0  0  0999 V2000
   -1.2695    4.5350   -0.2412 C   0  0  0  0  0  0  0  0  0  0  0  0
   -2.6061    4.0694   -0.1233 O   0  0  0  0  0  0  0  0  0  0  0  0
   -2.7946    2.7506    0.1929 C   0  0  0  0  0  0  0  0  0  0  0  0
   -1.7743    1.8191    0.3950 C   0  0  0  0  0  0  0  0  0  0  0  0
   -2.0837    0.4861    0.7163 C   0  0  0  0  0  0  0  0  0  0  0  0
   -3.4230    0.0804    0.8366 C   0  0  0  0  0  0  0  0  0  0  0  0
   -4.4499    0.9990    0.6373 C   0  0  0  0  0  0  0  0  0  0  0  0
   -4.1233    2.3250    0.3170 C   0  0  0  0  0  0  0  0  0  0  0  0
   -5.1442    3.2251    0.1217 O   0  0  0  0  0  0  0  0  0  0  0  0
   -5.7942    0.7372    0.7232 O   0  0  0  0  0  0  0  0  0  0  0  0
   -6.1674   -0.5978    1.0485 C   0  0  0  0  0  0  0  0  0  0  0  0
   -1.0280   -0.5409    0.9393 C   0  0  0  0  0  0  0  0  0  0  0  0
   -1.2750   -1.7037    1.2180 O   0  0  0  0  0  0  0  0  0  0  0  0
    0.2049   -0.0008    0.7842 O   0  0  0  0  0  0  0  0  0  0  0  0
    1.3130   -0.8982    0.9738 C   0  0  0  0  0  0  0  0  0  0  0  0
    1.6413   -1.6006   -0.3398 C   0  0  0  0  0  0  0  0  0  0  0  0
    2.7317   -2.6674   -0.2127 C   0  0  0  0  0  0  0  0  0  0  0  0
    4.0576   -2.1709    0.3623 C   0  0  0  0  0  0  0  0  0  0  0  0
    4.5595   -1.0287   -0.3922 N   0  0  0  0  0  0  0  0  0  0  0  0
    5.2553   -1.2087   -1.4475 C   0  0  0  0  0  0  0  0  0  0  0  0
    5.6424   -2.3469   -2.0625 N   0  0  0  0  0  0  0  0  0  0  0  0
    5.7051   -0.1407   -2.1408 N   0  0  0  0  0  0  0  0  0  0  0  0
   -1.3066    5.6005   -0.4876 H   0  0  0  0  0  0  0  0  0  0  0  0
   -0.7299    4.4316    0.7060 H   0  0  0  0  0  0  0  0  0  0  0  0
   -0.7438    4.0239   -1.0544 H   0  0  0  0  0  0  0  0  0  0  0  0
   -0.7337    2.1120    0.3059 H   0  0  0  0  0  0  0  0  0  0  0  0
   -3.6312   -0.9560    1.0857 H   0  0  0  0  0  0  0  0  0  0  0  0
   -5.9661    2.7173    0.2573 H   0  0  0  0  0  0  0  0  0  0  0  0
   -5.8277   -1.3003    0.2804 H   0  0  0  0  0  0  0  0  0  0  0  0
   -5.7953   -0.8810    2.0386 H   0  0  0  0  0  0  0  0  0  0  0  0
   -7.2604   -0.6404    1.0788 H   0  0  0  0  0  0  0  0  0  0  0  0
    2.1556   -0.2816    1.3022 H   0  0  0  0  0  0  0  0  0  0  0  0
    1.1042   -1.6141    1.7777 H   0  0  0  0  0  0  0  0  0  0  0  0
    0.7359   -2.0732   -0.7402 H   0  0  0  0  0  0  0  0  0  0  0  0
    1.9258   -0.8502   -1.0878 H   0  0  0  0  0  0  0  0  0  0  0  0
    2.3615   -3.4836    0.4197 H   0  0  0  0  0  0  0  0  0  0  0  0
    2.9041   -3.0992   -1.2060 H   0  0  0  0  0  0  0  0  0  0  0  0
    3.9197   -1.8590    1.4036 H   0  0  0  0  0  0  0  0  0  0  0  0
    4.7842   -2.9905    0.4045 H   0  0  0  0  0  0  0  0  0  0  0  0
    6.5782   -2.2736   -2.4454 H   0  0  0  0  0  0  0  0  0  0  0  0
    5.5475   -3.1838   -1.5033 H   0  0  0  0  0  0  0  0  0  0  0  0
    5.5212   -0.2258   -3.1330 H   0  0  0  0  0  0  0  0  0  0  0  0
    5.2792    0.7055   -1.7743 H   0  0  0  0  0  0  0  0  0  0  0  0
  1  2  1  0
  2  3  1  0
  3  4  2  0
  4  5  1  0
  5  6  2  0
  6  7  1  0
  7  8  2  0
  8  9  1  0
  7 10  1  0
 10 11  1  0
  5 12  1  0
 12 13  2  0
 12 14  1  0
 14 15  1  0
 15 16  1  0
 16 17  1  0
 17 18  1  0
 18 19  1  0
 19 20  2  3
 20 21  1  0
 20 22  1  0
  8  3  1  0
  1 23  1  0
  1 24  1  0
  1 25  1  0
  4 26  1  0
  6 27  1  0
  9 28  1  0
 11 29  1  0
 11 30  1  0
 11 31  1  0
 15 32  1  0
 15 33  1  0
 16 34  1  0
 16 35  1  0
 17 36  1  0
 17 37  1  0
 18 38  1  0
 18 39  1  0
 21 40  1  0
 21 41  1  0
 22 42  1  0
 22 43  1  0
M  END
$$$$
leonurine.sdf
     RDKit          3D

 43 43  0  0  0  0  0  0  0  0999 V2000
   -0.3186    3.3632   -0.9951 C   0  0  0  0  0  0  0  0  0  0  0  0
   -1.6077    3.3647   -0.3889 O   0  0  0  0  0  0  0  0  0  0  0  0
   -2.1070    2.1475    0.0027 C   0  0  0  0  0  0  0  0  0  0  0  0
   -1.4940    0.9129   -0.1931 C   0  0  0  0  0  0  0  0  0  0  0  0
   -2.1200   -0.2579    0.2649 C   0  0  0  0  0  0  0  0  0  0  0  0
   -3.3562   -0.1905    0.9283 C   0  0  0  0  0  0  0  0  0  0  0  0
   -3.9835    1.0400    1.1265 C   0  0  0  0  0  0  0  0  0  0  0  0
   -3.3481    2.1966    0.6559 C   0  0  0  0  0  0  0  0  0  0  0  0
   -3.9462    3.4210    0.8395 O   0  0  0  0  0  0  0  0  0  0  0  0
   -5.1880    1.2184    1.7523 O   0  0  0  0  0  0  0  0  0  0  0  0
   -5.8385    0.0649    2.2665 C   0  0  0  0  0  0  0  0  0  0  0  0
   -1.4940   -1.5962    0.0923 C   0  0  0  0  0  0  0  0  0  0  0  0
   -1.8421   -2.5918    0.7053 O   0  0  0  0  0  0  0  0  0  0  0  0
   -0.5076   -1.5283   -0.8330 O   0  0  0  0  0  0  0  0  0  0  0  0
    0.2555   -2.7245   -1.0365 C   0  0  0  0  0  0  0  0  0  0  0  0
    1.4053   -2.8114   -0.0334 C   0  0  0  0  0  0  0  0  0  0  0  0
    2.2249   -1.5242    0.1121 C   0  0  0  0  0  0  0  0  0  0  0  0
    2.8668   -1.0571   -1.1925 C   0  0  0  0  0  0  0  0  0  0  0  0
    3.6129    0.1764   -0.9568 N   0  0  0  0  0  0  0  0  0  0  0  0
    4.8532    0.1220   -0.6564 C   0  0  0  0  0  0  0  0  0  0  0  0
    5.6637   -0.9427   -0.4708 N   0  0  0  0  0  0  0  0  0  0  0  0
    5.5508    1.2641   -0.4761 N   0  0  0  0  0  0  0  0  0  0  0  0
   -0.3294    2.8105   -1.9403 H   0  0  0  0  0  0  0  0  0  0  0  0
   -0.0550    4.4012   -1.2195 H   0  0  0  0  0  0  0  0  0  0  0  0
    0.4395    2.9670   -0.3114 H   0  0  0  0  0  0  0  0  0  0  0  0
   -0.5311    0.8404   -0.6883 H   0  0  0  0  0  0  0  0  0  0  0  0
   -3.8061   -1.1155    1.2770 H   0  0  0  0  0  0  0  0  0  0  0  0
   -3.3341    4.0693    0.4436 H   0  0  0  0  0  0  0  0  0  0  0  0
   -6.7700    0.3893    2.7402 H   0  0  0  0  0  0  0  0  0  0  0  0
   -5.2285   -0.4244    3.0330 H   0  0  0  0  0  0  0  0  0  0  0  0
   -6.0992   -0.6320    1.4632 H   0  0  0  0  0  0  0  0  0  0  0  0
    0.6468   -2.6849   -2.0585 H   0  0  0  0  0  0  0  0  0  0  0  0
   -0.3801   -3.6165   -0.9838 H   0  0  0  0  0  0  0  0  0  0  0  0
    0.9930   -3.0506    0.9546 H   0  0  0  0  0  0  0  0  0  0  0  0
    2.0625   -3.6438   -0.3105 H   0  0  0  0  0  0  0  0  0  0  0  0
    1.5935   -0.7237    0.5175 H   0  0  0  0  0  0  0  0  0  0  0  0
    3.0056   -1.6970    0.8633 H   0  0  0  0  0  0  0  0  0  0  0  0
    3.4868   -1.8461   -1.6338 H   0  0  0  0  0  0  0  0  0  0  0  0
    2.0936   -0.8301   -1.9342 H   0  0  0  0  0  0  0  0  0  0  0  0
    6.3386   -0.7792    0.2679 H   0  0  0  0  0  0  0  0  0  0  0  0
    5.1735   -1.8139   -0.3150 H   0  0  0  0  0  0  0  0  0  0  0  0
    6.4314    1.2563   -0.9763 H   0  0  0  0  0  0  0  0  0  0  0  0
    4.9871    2.0567   -0.7682 H   0  0  0  0  0  0  0  0  0  0  0  0
  1  2  1  0
  2  3  1  0
  3  4  2  0
  4  5  1  0
  5  6  2  0
  6  7  1  0
  7  8  2  0
  8  9  1  0
  7 10  1  0
 10 11  1  0
  5 12  1  0
 12 13  2  0
 12 14  1  0
 14 15  1  0
 15 16  1  0
 16 17  1  0
 17 18  1  0
 18 19  1  0
 19 20  2  3
 20 21  1  0
 20 22  1  0
  8  3  1  0
  1 23  1  0
  1 24  1  0
  1 25  1  0
  4 26  1  0
  6 27  1  0
  9 28  1  0
 11 29  1  0
 11 30  1  0
 11 31  1  0
 15 32  1  0
 15 33  1  0
 16 34  1  0
 16 35  1  0
 17 36  1  0
 17 37  1  0
 18 38  1  0
 18 39  1  0
 21 40  1  0
 21 41  1  0
 22 42  1  0
 22 43  1  0
M  END
$$$$
leonurine.sdf
     RDKit          3D

 43 43  0  0  0  0  0  0  0  0999 V2000
   -3.5027    4.7895   -1.5749 C   0  0  0  0  0  0  0  0  0  0  0  0
   -4.3946    3.7720   -1.1315 O   0  0  0  0  0  0  0  0  0  0  0  0
   -3.8343    2.6956   -0.4909 C   0  0  0  0  0  0  0  0  0  0  0  0
   -2.4776    2.5063   -0.2430 C   0  0  0  0  0  0  0  0  0  0  0  0
   -2.0396    1.3516    0.4263 C   0  0  0  0  0  0  0  0  0  0  0  0
   -2.9672    0.3837    0.8488 C   0  0  0  0  0  0  0  0  0  0  0  0
   -4.3308    0.5615    0.6065 C   0  0  0  0  0  0  0  0  0  0  0  0
   -4.7462    1.7195   -0.0633 C   0  0  0  0  0  0  0  0  0  0  0  0
   -6.0841    1.9145   -0.3131 O   0  0  0  0  0  0  0  0  0  0  0  0
   -5.3169   -0.3151    0.9723 O   0  0  0  0  0  0  0  0  0  0  0  0
   -4.9305   -1.4904    1.6699 C   0  0  0  0  0  0  0  0  0  0  0  0
   -0.5762    1.2029    0.6607 C   0  0  0  0  0  0  0  0  0  0  0  0
    0.2461    2.0284    0.2966 O   0  0  0  0  0  0  0  0  0  0  0  0
   -0.3098    0.0450    1.3129 O   0  0  0  0  0  0  0  0  0  0  0  0
    1.0751   -0.2079    1.6017 C   0  0  0  0  0  0  0  0  0  0  0  0
    1.7376   -0.8973    0.4134 C   0  0  0  0  0  0  0  0  0  0  0  0
    3.1889   -1.2587    0.7155 C   0  0  0  0  0  0  0  0  0  0  0  0
    3.8569   -1.9361   -0.4797 C   0  0  0  0  0  0  0  0  0  0  0  0
    5.2234   -2.2796   -0.0997 N   0  0  0  0  0  0  0  0  0  0  0  0
    5.9951   -2.7703   -0.9928 C   0  0  0  0  0  0  0  0  0  0  0  0
    7.2725   -3.0785   -0.6829 N   0  0  0  0  0  0  0  0  0  0  0  0
    5.7538   -3.0527   -2.2916 N   0  0  0  0  0  0  0  0  0  0  0  0
   -2.9756    5.2468   -0.7311 H   0  0  0  0  0  0  0  0  0  0  0  0
   -4.1000    5.5695   -2.0567 H   0  0  0  0  0  0  0  0  0  0  0  0
   -2.7999    4.4006   -2.3190 H   0  0  0  0  0  0  0  0  0  0  0  0
   -1.7377    3.2366   -0.5575 H   0  0  0  0  0  0  0  0  0  0  0  0
   -2.6091   -0.5011    1.3636 H   0  0  0  0  0  0  0  0  0  0  0  0
   -6.1385    2.7702   -0.7787 H   0  0  0  0  0  0  0  0  0  0  0  0
   -4.4543   -1.2447    2.6248 H   0  0  0  0  0  0  0  0  0  0  0  0
   -4.2800   -2.1193    1.0533 H   0  0  0  0  0  0  0  0  0  0  0  0
   -5.8368   -2.0634    1.8883 H   0  0  0  0  0  0  0  0  0  0  0  0
    1.0989   -0.8640    2.4787 H   0  0  0  0  0  0  0  0  0  0  0  0
    1.5948    0.7170    1.8793 H   0  0  0  0  0  0  0  0  0  0  0  0
    1.1678   -1.7982    0.1536 H   0  0  0  0  0  0  0  0  0  0  0  0
    1.6871   -0.2465   -0.4678 H   0  0  0  0  0  0  0  0  0  0  0  0
    3.2312   -1.9250    1.5863 H   0  0  0  0  0  0  0  0  0  0  0  0
    3.7496   -0.3546    0.9842 H   0  0  0  0  0  0  0  0  0  0  0  0
    3.2988   -2.8415   -0.7464 H   0  0  0  0  0  0  0  0  0  0  0  0
    3.8506   -1.2516   -1.3365 H   0  0  0  0  0  0  0  0  0  0  0  0
    7.9269   -2.7128   -1.3639 H   0  0  0  0  0  0  0  0  0  0  0  0
    7.4907   -2.7185    0.2417 H   0  0  0  0  0  0  0  0  0  0  0  0
    4.7718   -3.0839   -2.5332 H   0  0  0  0  0  0  0  0  0  0  0  0
    6.2248   -3.8994   -2.5895 H   0  0  0  0  0  0  0  0  0  0  0  0
  1  2  1  0
  2  3  1  0
  3  4  2  0
  4  5  1  0
  5  6  2  0
  6  7  1  0
  7  8  2  0
  8  9  1  0
  7 10  1  0
 10 11  1  0
  5 12  1  0
 12 13  2  0
 12 14  1  0
 14 15  1  0
 15 16  1  0
 16 17  1  0
 17 18  1  0
 18 19  1  0
 19 20  2  3
 20 21  1  0
 20 22  1  0
  8  3  1  0
  1 23  1  0
  1 24  1  0
  1 25  1  0
  4 26  1  0
  6 27  1  0
  9 28  1  0
 11 29  1  0
 11 30  1  0
 11 31  1  0
 15 32  1  0
 15 33  1  0
 16 34  1  0
 16 35  1  0
 17 36  1  0
 17 37  1  0
 18 38  1  0
 18 39  1  0
 21 40  1  0
 21 41  1  0
 22 42  1  0
 22 43  1  0
M  END
$$$$
leonurine.sdf
     RDKit          3D

 43 43  0  0  0  0  0  0  0  0999 V2000
   -2.3897    4.2414   -1.4669 C   0  0  0  0  0  0  0  0  0  0  0  0
   -3.5313    3.5662   -0.9499 O   0  0  0  0  0  0  0  0  0  0  0  0
   -3.3284    2.3099   -0.4352 C   0  0  0  0  0  0  0  0  0  0  0  0
   -2.1089    1.6393   -0.3705 C   0  0  0  0  0  0  0  0  0  0  0  0
   -2.0483    0.3511    0.1854 C   0  0  0  0  0  0  0  0  0  0  0  0
   -3.2138   -0.2633    0.6758 C   0  0  0  0  0  0  0  0  0  0  0  0
   -4.4415    0.3971    0.6171 C   0  0  0  0  0  0  0  0  0  0  0  0
   -4.4811    1.6810    0.0598 C   0  0  0  0  0  0  0  0  0  0  0  0
   -5.6785    2.3531   -0.0094 O   0  0  0  0  0  0  0  0  0  0  0  0
   -5.6315   -0.1098    1.0653 O   0  0  0  0  0  0  0  0  0  0  0  0
   -5.6196   -1.4135    1.6298 C   0  0  0  0  0  0  0  0  0  0  0  0
   -0.7716   -0.4111    0.2808 C   0  0  0  0  0  0  0  0  0  0  0  0
   -0.6949   -1.5329    0.7558 O   0  0  0  0  0  0  0  0  0  0  0  0
    0.2556    0.3184   -0.2191 O   0  0  0  0  0  0  0  0  0  0  0  0
    1.5480   -0.3179   -0.1995 C   0  0  0  0  0  0  0  0  0  0  0  0
    2.2278   -0.0570    1.1417 C   0  0  0  0  0  0  0  0  0  0  0  0
    3.5246   -0.8413    1.3552 C   0  0  0  0  0  0  0  0  0  0  0  0
    4.6664   -0.4493    0.4189 C   0  0  0  0  0  0  0  0  0  0  0  0
    4.4272   -0.9417   -0.9334 N   0  0  0  0  0  0  0  0  0  0  0  0
    4.8306   -2.1053   -1.2716 C   0  0  0  0  0  0  0  0  0  0  0  0
    4.6354   -2.5409   -2.5345 N   0  0  0  0  0  0  0  0  0  0  0  0
    5.4623   -3.0569   -0.5507 N   0  0  0  0  0  0  0  0  0  0  0  0
   -2.7184    5.2177   -1.8357 H   0  0  0  0  0  0  0  0  0  0  0  0
   -1.6456    4.4146   -0.6826 H   0  0  0  0  0  0  0  0  0  0  0  0
   -1.9571    3.6945   -2.3112 H   0  0  0  0  0  0  0  0  0  0  0  0
   -1.2005    2.0984   -0.7447 H   0  0  0  0  0  0  0  0  0  0  0  0
   -3.1327   -1.2604    1.0993 H   0  0  0  0  0  0  0  0  0  0  0  0
   -5.4708    3.2101   -0.4264 H   0  0  0  0  0  0  0  0  0  0  0  0
   -4.9936   -1.4493    2.5275 H   0  0  0  0  0  0  0  0  0  0  0  0
   -5.3008   -2.1595    0.8944 H   0  0  0  0  0  0  0  0  0  0  0  0
   -6.6434   -1.6580    1.9288 H   0  0  0  0  0  0  0  0  0  0  0  0
    1.4579   -1.3891   -0.4147 H   0  0  0  0  0  0  0  0  0  0  0  0
    2.1166    0.1360   -1.0159 H   0  0  0  0  0  0  0  0  0  0  0  0
    1.5351   -0.3110    1.9537 H   0  0  0  0  0  0  0  0  0  0  0  0
    2.4146    1.0189    1.2487 H   0  0  0  0  0  0  0  0  0  0  0  0
    3.3185   -1.9157    1.2824 H   0  0  0  0  0  0  0  0  0  0  0  0
    3.8560   -0.6556    2.3845 H   0  0  0  0  0  0  0  0  0  0  0  0
    5.6211   -0.8135    0.8169 H   0  0  0  0  0  0  0  0  0  0  0  0
    4.7601    0.6422    0.3804 H   0  0  0  0  0  0  0  0  0  0  0  0
    4.3123   -1.7726   -3.1149 H   0  0  0  0  0  0  0  0  0  0  0  0
    5.4722   -2.9520   -2.9303 H   0  0  0  0  0  0  0  0  0  0  0  0
    5.4075   -2.9233    0.4508 H   0  0  0  0  0  0  0  0  0  0  0  0
    5.1524   -3.9893   -0.8009 H   0  0  0  0  0  0  0  0  0  0  0  0
  1  2  1  0
  2  3  1  0
  3  4  2  0
  4  5  1  0
  5  6  2  0
  6  7  1  0
  7  8  2  0
  8  9  1  0
  7 10  1  0
 10 11  1  0
  5 12  1  0
 12 13  2  0
 12 14  1  0
 14 15  1  0
 15 16  1  0
 16 17  1  0
 17 18  1  0
 18 19  1  0
 19 20  2  3
 20 21  1  0
 20 22  1  0
  8  3  1  0
  1 23  1  0
  1 24  1  0
  1 25  1  0
  4 26  1  0
  6 27  1  0
  9 28  1  0
 11 29  1  0
 11 30  1  0
 11 31  1  0
 15 32  1  0
 15 33  1  0
 16 34  1  0
 16 35  1  0
 17 36  1  0
 17 37  1  0
 18 38  1  0
 18 39  1  0
 21 40  1  0
 21 41  1  0
 22 42  1  0
 22 43  1  0
M  END
$$$$
leonurine.sdf
     RDKit          3D

 43 43  0  0  0  0  0  0  0  0999 V2000
   -2.5750    4.3394   -1.4731 C   0  0  0  0  0  0  0  0  0  0  0  0
   -3.7049    3.7015   -0.8879 O   0  0  0  0  0  0  0  0  0  0  0  0
   -3.4889    2.4890   -0.2819 C   0  0  0  0  0  0  0  0  0  0  0  0
   -2.2646    1.8321   -0.1788 C   0  0  0  0  0  0  0  0  0  0  0  0
   -2.1909    0.5899    0.4723 C   0  0  0  0  0  0  0  0  0  0  0  0
   -3.3480    0.0073    1.0184 C   0  0  0  0  0  0  0  0  0  0  0  0
   -4.5801    0.6548    0.9222 C   0  0  0  0  0  0  0  0  0  0  0  0
   -4.6328    1.8930    0.2708 C   0  0  0  0  0  0  0  0  0  0  0  0
   -5.8350    2.5513    0.1635 O   0  0  0  0  0  0  0  0  0  0  0  0
   -5.7627    0.1767    1.4189 O   0  0  0  0  0  0  0  0  0  0  0  0
   -5.7402   -1.0853    2.0710 C   0  0  0  0  0  0  0  0  0  0  0  0
   -0.9093   -0.1564    0.6117 C   0  0  0  0  0  0  0  0  0  0  0  0
   -0.8219   -1.2466    1.1537 O   0  0  0  0  0  0  0  0  0  0  0  0
    0.1141    0.5415    0.0594 O   0  0  0  0  0  0  0  0  0  0  0  0
    1.4058   -0.0849    0.1290 C   0  0  0  0  0  0  0  0  0  0  0  0
    1.6177   -0.9656   -1.0988 C   0  0  0  0  0  0  0  0  0  0  0  0
    2.9200   -1.7646   -1.0627 C   0  0  0  0  0  0  0  0  0  0  0  0
    4.1711   -0.8892   -1.0234 C   0  0  0  0  0  0  0  0  0  0  0  0
    5.3580   -1.7201   -1.1986 N   0  0  0  0  0  0  0  0  0  0  0  0
    5.9532   -2.2102   -0.1808 C   0  0  0  0  0  0  0  0  0  0  0  0
    5.6547   -2.1256    1.1340 N   0  0  0  0  0  0  0  0  0  0  0  0
    7.0722   -2.9468   -0.3498 N   0  0  0  0  0  0  0  0  0  0  0  0
   -2.9148    5.2818   -1.9133 H   0  0  0  0  0  0  0  0  0  0  0  0
   -1.8211    4.5779   -0.7158 H   0  0  0  0  0  0  0  0  0  0  0  0
   -2.1507    3.7296   -2.2775 H   0  0  0  0  0  0  0  0  0  0  0  0
   -1.3631    2.2670   -0.5960 H   0  0  0  0  0  0  0  0  0  0  0  0
   -3.2574   -0.9546    1.5149 H   0  0  0  0  0  0  0  0  0  0  0  0
   -5.6380    3.3755   -0.3196 H   0  0  0  0  0  0  0  0  0  0  0  0
   -5.1068   -1.0569    2.9638 H   0  0  0  0  0  0  0  0  0  0  0  0
   -6.7604   -1.3130    2.3946 H   0  0  0  0  0  0  0  0  0  0  0  0
   -5.4237   -1.8786    1.3858 H   0  0  0  0  0  0  0  0  0  0  0  0
    2.1406    0.7260    0.1503 H   0  0  0  0  0  0  0  0  0  0  0  0
    1.5237   -0.6496    1.0614 H   0  0  0  0  0  0  0  0  0  0  0  0
    0.7783   -1.6652   -1.1954 H   0  0  0  0  0  0  0  0  0  0  0  0
    1.5826   -0.3422   -2.0011 H   0  0  0  0  0  0  0  0  0  0  0  0
    2.9564   -2.4061   -1.9525 H   0  0  0  0  0  0  0  0  0  0  0  0
    2.9107   -2.4408   -0.1992 H   0  0  0  0  0  0  0  0  0  0  0  0
    4.2208   -0.2938   -0.1052 H   0  0  0  0  0  0  0  0  0  0  0  0
    4.1416   -0.1697   -1.8499 H   0  0  0  0  0  0  0  0  0  0  0  0
    5.8744   -2.9853    1.6248 H   0  0  0  0  0  0  0  0  0  0  0  0
    4.7016   -1.8457    1.3241 H   0  0  0  0  0  0  0  0  0  0  0  0
    7.3743   -2.8833   -1.3179 H   0  0  0  0  0  0  0  0  0  0  0  0
    7.8184   -2.6545    0.2692 H   0  0  0  0  0  0  0  0  0  0  0  0
  1  2  1  0
  2  3  1  0
  3  4  2  0
  4  5  1  0
  5  6  2  0
  6  7  1  0
  7  8  2  0
  8  9  1  0
  7 10  1  0
 10 11  1  0
  5 12  1  0
 12 13  2  0
 12 14  1  0
 14 15  1  0
 15 16  1  0
 16 17  1  0
 17 18  1  0
 18 19  1  0
 19 20  2  3
 20 21  1  0
 20 22  1  0
  8  3  1  0
  1 23  1  0
  1 24  1  0
  1 25  1  0
  4 26  1  0
  6 27  1  0
  9 28  1  0
 11 29  1  0
 11 30  1  0
 11 31  1  0
 15 32  1  0
 15 33  1  0
 16 34  1  0
 16 35  1  0
 17 36  1  0
 17 37  1  0
 18 38  1  0
 18 39  1  0
 21 40  1  0
 21 41  1  0
 22 42  1  0
 22 43  1  0
M  END
$$$$
leonurine.sdf
     RDKit          3D

 43 43  0  0  0  0  0  0  0  0999 V2000
   -3.0572    4.8219   -1.6818 C   0  0  0  0  0  0  0  0  0  0  0  0
   -3.9571    4.1009   -0.8466 O   0  0  0  0  0  0  0  0  0  0  0  0
   -3.5707    2.8408   -0.4646 C   0  0  0  0  0  0  0  0  0  0  0  0
   -2.3817    2.2077   -0.8158 C   0  0  0  0  0  0  0  0  0  0  0  0
   -2.1129    0.9094   -0.3521 C   0  0  0  0  0  0  0  0  0  0  0  0
   -3.0408    0.2445    0.4679 C   0  0  0  0  0  0  0  0  0  0  0  0
   -4.2370    0.8683    0.8279 C   0  0  0  0  0  0  0  0  0  0  0  0
   -4.4857    2.1629    0.3544 C   0  0  0  0  0  0  0  0  0  0  0  0
   -5.6572    2.7960    0.6964 O   0  0  0  0  0  0  0  0  0  0  0  0
   -5.2075    0.3145    1.6192 O   0  0  0  0  0  0  0  0  0  0  0  0
   -4.9856   -0.9972    2.1166 C   0  0  0  0  0  0  0  0  0  0  0  0
   -0.8242    0.2835   -0.7599 C   0  0  0  0  0  0  0  0  0  0  0  0
    0.0064    0.8518   -1.4512 O   0  0  0  0  0  0  0  0  0  0  0  0
   -0.7194   -0.9711   -0.2574 O   0  0  0  0  0  0  0  0  0  0  0  0
    0.4829   -1.6819   -0.5949 C   0  0  0  0  0  0  0  0  0  0  0  0
    1.5909   -1.3337    0.3939 C   0  0  0  0  0  0  0  0  0  0  0  0
    2.8713   -2.1074    0.0930 C   0  0  0  0  0  0  0  0  0  0  0  0
    3.9833   -1.7439    1.0737 C   0  0  0  0  0  0  0  0  0  0  0  0
    5.1715   -2.5437    0.7962 N   0  0  0  0  0  0  0  0  0  0  0  0
    6.0229   -2.1506   -0.0704 C   0  0  0  0  0  0  0  0  0  0  0  0
    7.1163   -2.9029   -0.3206 N   0  0  0  0  0  0  0  0  0  0  0  0
    6.0333   -1.0548   -0.8599 N   0  0  0  0  0  0  0  0  0  0  0  0
   -2.9076    4.3074   -2.6367 H   0  0  0  0  0  0  0  0  0  0  0  0
   -2.1043    5.0003   -1.1729 H   0  0  0  0  0  0  0  0  0  0  0  0
   -3.5083    5.7957   -1.8952 H   0  0  0  0  0  0  0  0  0  0  0  0
   -1.6459    2.6967   -1.4476 H   0  0  0  0  0  0  0  0  0  0  0  0
   -2.8146   -0.7573    0.8166 H   0  0  0  0  0  0  0  0  0  0  0  0
   -5.6163    3.6690    0.2630 H   0  0  0  0  0  0  0  0  0  0  0  0
   -5.8528   -1.2767    2.7226 H   0  0  0  0  0  0  0  0  0  0  0  0
   -4.1031   -1.0299    2.7641 H   0  0  0  0  0  0  0  0  0  0  0  0
   -4.9039   -1.7210    1.2991 H   0  0  0  0  0  0  0  0  0  0  0  0
    0.7806   -1.4784   -1.6306 H   0  0  0  0  0  0  0  0  0  0  0  0
    0.2464   -2.7497   -0.5339 H   0  0  0  0  0  0  0  0  0  0  0  0
    1.7888   -0.2555    0.3652 H   0  0  0  0  0  0  0  0  0  0  0  0
    1.2467   -1.5481    1.4133 H   0  0  0  0  0  0  0  0  0  0  0  0
    3.1954   -1.8969   -0.9334 H   0  0  0  0  0  0  0  0  0  0  0  0
    2.6743   -3.1856    0.1448 H   0  0  0  0  0  0  0  0  0  0  0  0
    4.1925   -0.6682    1.0611 H   0  0  0  0  0  0  0  0  0  0  0  0
    3.6577   -1.9722    2.0955 H   0  0  0  0  0  0  0  0  0  0  0  0
    7.0241   -3.7985    0.1500 H   0  0  0  0  0  0  0  0  0  0  0  0
    7.2639   -3.0404   -1.3129 H   0  0  0  0  0  0  0  0  0  0  0  0
    6.9659   -0.6732   -0.9697 H   0  0  0  0  0  0  0  0  0  0  0  0
    5.3786   -0.3324   -0.5915 H   0  0  0  0  0  0  0  0  0  0  0  0
  1  2  1  0
  2  3  1  0
  3  4  2  0
  4  5  1  0
  5  6  2  0
  6  7  1  0
  7  8  2  0
  8  9  1  0
  7 10  1  0
 10 11  1  0
  5 12  1  0
 12 13  2  0
 12 14  1  0
 14 15  1  0
 15 16  1  0
 16 17  1  0
 17 18  1  0
 18 19  1  0
 19 20  2  3
 20 21  1  0
 20 22  1  0
  8  3  1  0
  1 23  1  0
  1 24  1  0
  1 25  1  0
  4 26  1  0
  6 27  1  0
  9 28  1  0
 11 29  1  0
 11 30  1  0
 11 31  1  0
 15 32  1  0
 15 33  1  0
 16 34  1  0
 16 35  1  0
 17 36  1  0
 17 37  1  0
 18 38  1  0
 18 39  1  0
 21 40  1  0
 21 41  1  0
 22 42  1  0
 22 43  1  0
M  END
$$$$
leonurine.sdf
     RDKit          3D

 43 43  0  0  0  0  0  0  0  0999 V2000
   -3.4802    4.8379   -1.4222 C   0  0  0  0  0  0  0  0  0  0  0  0
   -4.2778    3.6677   -1.2753 O   0  0  0  0  0  0  0  0  0  0  0  0
   -3.6787    2.5819   -0.6876 C   0  0  0  0  0  0  0  0  0  0  0  0
   -2.3685    2.5233   -0.2209 C   0  0  0  0  0  0  0  0  0  0  0  0
   -1.8826    1.3421    0.3636 C   0  0  0  0  0  0  0  0  0  0  0  0
   -2.7142    0.2146    0.4769 C   0  0  0  0  0  0  0  0  0  0  0  0
   -4.0301    0.2598    0.0121 C   0  0  0  0  0  0  0  0  0  0  0  0
   -4.4956    1.4482   -0.5649 C   0  0  0  0  0  0  0  0  0  0  0  0
   -5.7883    1.5156   -1.0284 O   0  0  0  0  0  0  0  0  0  0  0  0
   -4.9231   -0.7764    0.0729 O   0  0  0  0  0  0  0  0  0  0  0  0
   -4.4748   -2.0017    0.6341 C   0  0  0  0  0  0  0  0  0  0  0  0
   -0.4728    1.3386    0.8443 C   0  0  0  0  0  0  0  0  0  0  0  0
    0.2824    2.2881    0.7074 O   0  0  0  0  0  0  0  0  0  0  0  0
   -0.1727    0.1582    1.4387 O   0  0  0  0  0  0  0  0  0  0  0  0
    1.1688    0.0309    1.9375 C   0  0  0  0  0  0  0  0  0  0  0  0
    2.0900   -0.4736    0.8319 C   0  0  0  0  0  0  0  0  0  0  0  0
    3.5241   -0.6425    1.3345 C   0  0  0  0  0  0  0  0  0  0  0  0
    4.4679   -1.1415    0.2409 C   0  0  0  0  0  0  0  0  0  0  0  0
    4.1084   -2.5132   -0.1056 N   0  0  0  0  0  0  0  0  0  0  0  0
    4.8164   -3.1220   -0.9785 C   0  0  0  0  0  0  0  0  0  0  0  0
    4.5260   -4.3982   -1.3097 N   0  0  0  0  0  0  0  0  0  0  0  0
    5.8902   -2.6962   -1.6792 N   0  0  0  0  0  0  0  0  0  0  0  0
   -2.6177    4.6485   -2.0697 H   0  0  0  0  0  0  0  0  0  0  0  0
   -3.1676    5.2268   -0.4475 H   0  0  0  0  0  0  0  0  0  0  0  0
   -4.0965    5.6030   -1.9039 H   0  0  0  0  0  0  0  0  0  0  0  0
   -1.7021    3.3776   -0.2964 H   0  0  0  0  0  0  0  0  0  0  0  0
   -2.3187   -0.6890    0.9282 H   0  0  0  0  0  0  0  0  0  0  0  0
   -5.8893    2.4191   -1.3823 H   0  0  0  0  0  0  0  0  0  0  0  0
   -4.1958   -1.8755    1.6854 H   0  0  0  0  0  0  0  0  0  0  0  0
   -3.6483   -2.4237    0.0528 H   0  0  0  0  0  0  0  0  0  0  0  0
   -5.3060   -2.7123    0.5940 H   0  0  0  0  0  0  0  0  0  0  0  0
    1.1338   -0.6945    2.7576 H   0  0  0  0  0  0  0  0  0  0  0  0
    1.5216    0.9779    2.3631 H   0  0  0  0  0  0  0  0  0  0  0  0
    1.6979   -1.4231    0.4478 H   0  0  0  0  0  0  0  0  0  0  0  0
    2.0698    0.2229   -0.0150 H   0  0  0  0  0  0  0  0  0  0  0  0
    3.5392   -1.3383    2.1824 H   0  0  0  0  0  0  0  0  0  0  0  0
    3.8919    0.3233    1.7016 H   0  0  0  0  0  0  0  0  0  0  0  0
    4.3981   -0.4846   -0.6342 H   0  0  0  0  0  0  0  0  0  0  0  0
    5.4949   -1.1051    0.6238 H   0  0  0  0  0  0  0  0  0  0  0  0
    3.8262   -4.7625   -0.6697 H   0  0  0  0  0  0  0  0  0  0  0  0
    5.3483   -4.9891   -1.3045 H   0  0  0  0  0  0  0  0  0  0  0  0
    6.0177   -1.6925   -1.6726 H   0  0  0  0  0  0  0  0  0  0  0  0
    5.8875   -3.0508   -2.6288 H   0  0  0  0  0  0  0  0  0  0  0  0
  1  2  1  0
  2  3  1  0
  3  4  2  0
  4  5  1  0
  5  6  2  0
  6  7  1  0
  7  8  2  0
  8  9  1  0
  7 10  1  0
 10 11  1  0
  5 12  1  0
 12 13  2  0
 12 14  1  0
 14 15  1  0
 15 16  1  0
 16 17  1  0
 17 18  1  0
 18 19  1  0
 19 20  2  3
 20 21  1  0
 20 22  1  0
  8  3  1  0
  1 23  1  0
  1 24  1  0
  1 25  1  0
  4 26  1  0
  6 27  1  0
  9 28  1  0
 11 29  1  0
 11 30  1  0
 11 31  1  0
 15 32  1  0
 15 33  1  0
 16 34  1  0
 16 35  1  0
 17 36  1  0
 17 37  1  0
 18 38  1  0
 18 39  1  0
 21 40  1  0
 21 41  1  0
 22 42  1  0
 22 43  1  0
M  END
$$$$
leonurine.sdf
     RDKit          3D

 43 43  0  0  0  0  0  0  0  0999 V2000
   -3.3271    4.9135   -1.6805 C   0  0  0  0  0  0  0  0  0  0  0  0
   -4.1558    3.8061   -1.3564 O   0  0  0  0  0  0  0  0  0  0  0  0
   -3.5528    2.6972   -0.8266 C   0  0  0  0  0  0  0  0  0  0  0  0
   -2.1857    2.5670   -0.5795 C   0  0  0  0  0  0  0  0  0  0  0  0
   -1.6697    1.3802   -0.0307 C   0  0  0  0  0  0  0  0  0  0  0  0
   -2.5273    0.3106    0.2743 C   0  0  0  0  0  0  0  0  0  0  0  0
   -3.8943    0.4276    0.0325 C   0  0  0  0  0  0  0  0  0  0  0  0
   -4.3915    1.6201   -0.5153 C   0  0  0  0  0  0  0  0  0  0  0  0
   -5.7424    1.7235   -0.7493 O   0  0  0  0  0  0  0  0  0  0  0  0
   -4.8421   -0.5336    0.2812 O   0  0  0  0  0  0  0  0  0  0  0  0
   -4.3827   -1.7612    0.8367 C   0  0  0  0  0  0  0  0  0  0  0  0
   -0.2008    1.3087    0.2065 C   0  0  0  0  0  0  0  0  0  0  0  0
    0.5703    2.2151   -0.0655 O   0  0  0  0  0  0  0  0  0  0  0  0
    0.1360    0.1170    0.7575 O   0  0  0  0  0  0  0  0  0  0  0  0
    1.5408   -0.0440    1.0075 C   0  0  0  0  0  0  0  0  0  0  0  0
    1.7472   -1.4046    1.6625 C   0  0  0  0  0  0  0  0  0  0  0  0
    3.1866   -1.6604    2.1165 C   0  0  0  0  0  0  0  0  0  0  0  0
    4.2379   -1.5584    1.0107 C   0  0  0  0  0  0  0  0  0  0  0  0
    3.9110   -2.5071   -0.0472 N   0  0  0  0  0  0  0  0  0  0  0  0
    4.6234   -2.5005   -1.1086 C   0  0  0  0  0  0  0  0  0  0  0  0
    5.6895   -1.7383   -1.4355 N   0  0  0  0  0  0  0  0  0  0  0  0
    4.3338   -3.3471   -2.1194 N   0  0  0  0  0  0  0  0  0  0  0  0
   -3.9669    5.7025   -2.0873 H   0  0  0  0  0  0  0  0  0  0  0  0
   -2.5964    4.6476   -2.4515 H   0  0  0  0  0  0  0  0  0  0  0  0
   -2.8340    5.3125   -0.7880 H   0  0  0  0  0  0  0  0  0  0  0  0
   -1.4952    3.3748   -0.8046 H   0  0  0  0  0  0  0  0  0  0  0  0
   -2.1121   -0.5984    0.6957 H   0  0  0  0  0  0  0  0  0  0  0  0
   -6.1212    0.8717   -0.4623 H   0  0  0  0  0  0  0  0  0  0  0  0
   -3.6908   -2.2675    0.1556 H   0  0  0  0  0  0  0  0  0  0  0  0
   -3.9278   -1.6031    1.8201 H   0  0  0  0  0  0  0  0  0  0  0  0
   -5.2521   -2.4117    0.9725 H   0  0  0  0  0  0  0  0  0  0  0  0
    2.0787    0.0133    0.0550 H   0  0  0  0  0  0  0  0  0  0  0  0
    1.8858    0.7523    1.6771 H   0  0  0  0  0  0  0  0  0  0  0  0
    1.0822   -1.4886    2.5318 H   0  0  0  0  0  0  0  0  0  0  0  0
    1.4176   -2.1919    0.9731 H   0  0  0  0  0  0  0  0  0  0  0  0
    3.2316   -2.6619    2.5626 H   0  0  0  0  0  0  0  0  0  0  0  0
    3.4442   -0.9509    2.9122 H   0  0  0  0  0  0  0  0  0  0  0  0
    4.2792   -0.5323    0.6277 H   0  0  0  0  0  0  0  0  0  0  0  0
    5.2177   -1.7982    1.4413 H   0  0  0  0  0  0  0  0  0  0  0  0
    6.3810   -2.2581   -1.9639 H   0  0  0  0  0  0  0  0  0  0  0  0
    6.1194   -1.2655   -0.6510 H   0  0  0  0  0  0  0  0  0  0  0  0
    4.3106   -2.8765   -3.0159 H   0  0  0  0  0  0  0  0  0  0  0  0
    3.4441   -3.8020   -1.9372 H   0  0  0  0  0  0  0  0  0  0  0  0
  1  2  1  0
  2  3  1  0
  3  4  2  0
  4  5  1  0
  5  6  2  0
  6  7  1  0
  7  8  2  0
  8  9  1  0
  7 10  1  0
 10 11  1  0
  5 12  1  0
 12 13  2  0
 12 14  1  0
 14 15  1  0
 15 16  1  0
 16 17  1  0
 17 18  1  0
 18 19  1  0
 19 20  2  3
 20 21  1  0
 20 22  1  0
  8  3  1  0
  1 23  1  0
  1 24  1  0
  1 25  1  0
  4 26  1  0
  6 27  1  0
  9 28  1  0
 11 29  1  0
 11 30  1  0
 11 31  1  0
 15 32  1  0
 15 33  1  0
 16 34  1  0
 16 35  1  0
 17 36  1  0
 17 37  1  0
 18 38  1  0
 18 39  1  0
 21 40  1  0
 21 41  1  0
 22 42  1  0
 22 43  1  0
M  END
$$$$
leonurine.sdf
     RDKit          3D

 43 43  0  0  0  0  0  0  0  0999 V2000
   -3.3887    5.0007   -0.4300 C   0  0  0  0  0  0  0  0  0  0  0  0
   -3.8796    3.8000    0.1492 O   0  0  0  0  0  0  0  0  0  0  0  0
   -3.1275    2.6670   -0.0079 C   0  0  0  0  0  0  0  0  0  0  0  0
   -1.9189    2.5951   -0.7015 C   0  0  0  0  0  0  0  0  0  0  0  0
   -1.2292    1.3752   -0.8045 C   0  0  0  0  0  0  0  0  0  0  0  0
   -1.7448    0.2161   -0.2019 C   0  0  0  0  0  0  0  0  0  0  0  0
   -2.9489    0.2747    0.4954 C   0  0  0  0  0  0  0  0  0  0  0  0
   -3.6282    1.4996    0.5822 C   0  0  0  0  0  0  0  0  0  0  0  0
   -4.8171    1.5447    1.2713 O   0  0  0  0  0  0  0  0  0  0  0  0
   -3.5636   -0.7754    1.1306 O   0  0  0  0  0  0  0  0  0  0  0  0
   -2.8920   -2.0306    1.0925 C   0  0  0  0  0  0  0  0  0  0  0  0
    0.0583    1.3664   -1.5513 C   0  0  0  0  0  0  0  0  0  0  0  0
    0.6285    2.3758   -1.9321 O   0  0  0  0  0  0  0  0  0  0  0  0
    0.4834    0.0943   -1.7412 O   0  0  0  0  0  0  0  0  0  0  0  0
    1.7484   -0.0208   -2.4016 C   0  0  0  0  0  0  0  0  0  0  0  0
    2.1356   -1.4954   -2.4856 C   0  0  0  0  0  0  0  0  0  0  0  0
    2.0818   -2.2477   -1.1517 C   0  0  0  0  0  0  0  0  0  0  0  0
    2.9787   -1.6459   -0.0709 C   0  0  0  0  0  0  0  0  0  0  0  0
    2.9153   -2.5132    1.1026 N   0  0  0  0  0  0  0  0  0  0  0  0
    3.5320   -2.1448    2.1601 C   0  0  0  0  0  0  0  0  0  0  0  0
    4.2758   -1.0417    2.3941 N   0  0  0  0  0  0  0  0  0  0  0  0
    3.4817   -2.9107    3.2707 N   0  0  0  0  0  0  0  0  0  0  0  0
   -3.3186    4.9136   -1.5193 H   0  0  0  0  0  0  0  0  0  0  0  0
   -4.1044    5.7975   -0.2058 H   0  0  0  0  0  0  0  0  0  0  0  0
   -2.4261    5.2856    0.0074 H   0  0  0  0  0  0  0  0  0  0  0  0
   -1.4887    3.4732   -1.1745 H   0  0  0  0  0  0  0  0  0  0  0  0
   -1.1925   -0.7141   -0.2822 H   0  0  0  0  0  0  0  0  0  0  0  0
   -4.9664    0.6349    1.5899 H   0  0  0  0  0  0  0  0  0  0  0  0
   -2.7991   -2.3964    0.0647 H   0  0  0  0  0  0  0  0  0  0  0  0
   -1.9147   -1.9704    1.5828 H   0  0  0  0  0  0  0  0  0  0  0  0
   -3.4998   -2.7507    1.6487 H   0  0  0  0  0  0  0  0  0  0  0  0
    2.5099    0.5417   -1.8493 H   0  0  0  0  0  0  0  0  0  0  0  0
    1.6701    0.3920   -3.4142 H   0  0  0  0  0  0  0  0  0  0  0  0
    3.1379   -1.5804   -2.9211 H   0  0  0  0  0  0  0  0  0  0  0  0
    1.4444   -1.9987   -3.1733 H   0  0  0  0  0  0  0  0  0  0  0  0
    2.3792   -3.2891   -1.3309 H   0  0  0  0  0  0  0  0  0  0  0  0
    1.0476   -2.2897   -0.7874 H   0  0  0  0  0  0  0  0  0  0  0  0
    4.0080   -1.5842   -0.4431 H   0  0  0  0  0  0  0  0  0  0  0  0
    2.6309   -0.6386    0.1841 H   0  0  0  0  0  0  0  0  0  0  0  0
    4.5659   -0.5494    1.5592 H   0  0  0  0  0  0  0  0  0  0  0  0
    5.0721   -1.2387    2.9896 H   0  0  0  0  0  0  0  0  0  0  0  0
    3.2643   -2.3696    4.0986 H   0  0  0  0  0  0  0  0  0  0  0  0
    2.7990   -3.6517    3.1425 H   0  0  0  0  0  0  0  0  0  0  0  0
  1  2  1  0
  2  3  1  0
  3  4  2  0
  4  5  1  0
  5  6  2  0
  6  7  1  0
  7  8  2  0
  8  9  1  0
  7 10  1  0
 10 11  1  0
  5 12  1  0
 12 13  2  0
 12 14  1  0
 14 15  1  0
 15 16  1  0
 16 17  1  0
 17 18  1  0
 18 19  1  0
 19 20  2  3
 20 21  1  0
 20 22  1  0
  8  3  1  0
  1 23  1  0
  1 24  1  0
  1 25  1  0
  4 26  1  0
  6 27  1  0
  9 28  1  0
 11 29  1  0
 11 30  1  0
 11 31  1  0
 15 32  1  0
 15 33  1  0
 16 34  1  0
 16 35  1  0
 17 36  1  0
 17 37  1  0
 18 38  1  0
 18 39  1  0
 21 40  1  0
 21 41  1  0
 22 42  1  0
 22 43  1  0
M  END
$$$$
leonurine.sdf
     RDKit          3D

 43 43  0  0  0  0  0  0  0  0999 V2000
   -1.7552    4.0820   -0.3766 C   0  0  0  0  0  0  0  0  0  0  0  0
   -2.9316    3.3863    0.0213 O   0  0  0  0  0  0  0  0  0  0  0  0
   -2.9011    2.0167   -0.0626 C   0  0  0  0  0  0  0  0  0  0  0  0
   -1.8185    1.2468   -0.4821 C   0  0  0  0  0  0  0  0  0  0  0  0
   -1.9283   -0.1530   -0.5170 C   0  0  0  0  0  0  0  0  0  0  0  0
   -3.1268   -0.7790   -0.1327 C   0  0  0  0  0  0  0  0  0  0  0  0
   -4.2185   -0.0196    0.2894 C   0  0  0  0  0  0  0  0  0  0  0  0
   -4.0886    1.3743    0.3199 C   0  0  0  0  0  0  0  0  0  0  0  0
   -5.1496    2.1446    0.7338 O   0  0  0  0  0  0  0  0  0  0  0  0
   -5.4261   -0.5280    0.6856 O   0  0  0  0  0  0  0  0  0  0  0  0
   -5.5947   -1.9378    0.6346 C   0  0  0  0  0  0  0  0  0  0  0  0
   -0.8008   -1.0241   -0.9514 C   0  0  0  0  0  0  0  0  0  0  0  0
   -0.8731   -2.2410   -1.0089 O   0  0  0  0  0  0  0  0  0  0  0  0
    0.2874   -0.2758   -1.2542 O   0  0  0  0  0  0  0  0  0  0  0  0
    1.4337   -1.0305   -1.6710 C   0  0  0  0  0  0  0  0  0  0  0  0
    2.6010   -0.0734   -1.8926 C   0  0  0  0  0  0  0  0  0  0  0  0
    2.9540    0.7915   -0.6745 C   0  0  0  0  0  0  0  0  0  0  0  0
    3.2570    0.0057    0.6017 C   0  0  0  0  0  0  0  0  0  0  0  0
    4.3629   -0.9097    0.3450 N   0  0  0  0  0  0  0  0  0  0  0  0
    4.7732   -1.6496    1.3031 C   0  0  0  0  0  0  0  0  0  0  0  0
    5.8077   -2.4940    1.1052 N   0  0  0  0  0  0  0  0  0  0  0  0
    4.3363   -1.7456    2.5778 N   0  0  0  0  0  0  0  0  0  0  0  0
   -0.9075    3.8219    0.2659 H   0  0  0  0  0  0  0  0  0  0  0  0
   -1.9454    5.1532   -0.2596 H   0  0  0  0  0  0  0  0  0  0  0  0
   -1.5254    3.8974   -1.4311 H   0  0  0  0  0  0  0  0  0  0  0  0
   -0.8874    1.7138   -0.7838 H   0  0  0  0  0  0  0  0  0  0  0  0
   -3.1788   -1.8634   -0.1716 H   0  0  0  0  0  0  0  0  0  0  0  0
   -4.8407    3.0677    0.6712 H   0  0  0  0  0  0  0  0  0  0  0  0
   -6.6120   -2.1653    0.9676 H   0  0  0  0  0  0  0  0  0  0  0  0
   -4.9014   -2.4427    1.3153 H   0  0  0  0  0  0  0  0  0  0  0  0
   -5.4883   -2.3120   -0.3889 H   0  0  0  0  0  0  0  0  0  0  0  0
    1.6861   -1.7830   -0.9156 H   0  0  0  0  0  0  0  0  0  0  0  0
    1.2021   -1.5414   -2.6129 H   0  0  0  0  0  0  0  0  0  0  0  0
    3.4789   -0.6450   -2.2148 H   0  0  0  0  0  0  0  0  0  0  0  0
    2.3467    0.6071   -2.7150 H   0  0  0  0  0  0  0  0  0  0  0  0
    3.8260    1.4052   -0.9340 H   0  0  0  0  0  0  0  0  0  0  0  0
    2.1331    1.4898   -0.4711 H   0  0  0  0  0  0  0  0  0  0  0  0
    2.3627   -0.5367    0.9281 H   0  0  0  0  0  0  0  0  0  0  0  0
    3.5279    0.7171    1.3912 H   0  0  0  0  0  0  0  0  0  0  0  0
    6.2345   -2.3030    0.2034 H   0  0  0  0  0  0  0  0  0  0  0  0
    6.4992   -2.4296    1.8421 H   0  0  0  0  0  0  0  0  0  0  0  0
    4.3650   -2.7005    2.9173 H   0  0  0  0  0  0  0  0  0  0  0  0
    3.4242   -1.3378    2.7371 H   0  0  0  0  0  0  0  0  0  0  0  0
  1  2  1  0
  2  3  1  0
  3  4  2  0
  4  5  1  0
  5  6  2  0
  6  7  1  0
  7  8  2  0
  8  9  1  0
  7 10  1  0
 10 11  1  0
  5 12  1  0
 12 13  2  0
 12 14  1  0
 14 15  1  0
 15 16  1  0
 16 17  1  0
 17 18  1  0
 18 19  1  0
 19 20  2  3
 20 21  1  0
 20 22  1  0
  8  3  1  0
  1 23  1  0
  1 24  1  0
  1 25  1  0
  4 26  1  0
  6 27  1  0
  9 28  1  0
 11 29  1  0
 11 30  1  0
 11 31  1  0
 15 32  1  0
 15 33  1  0
 16 34  1  0
 16 35  1  0
 17 36  1  0
 17 37  1  0
 18 38  1  0
 18 39  1  0
 21 40  1  0
 21 41  1  0
 22 42  1  0
 22 43  1  0
M  END
$$$$
leonurine.sdf
     RDKit          3D

 43 43  0  0  0  0  0  0  0  0999 V2000
   -3.1557    4.2607   -1.9656 C   0  0  0  0  0  0  0  0  0  0  0  0
   -4.1495    3.4169   -1.3943 O   0  0  0  0  0  0  0  0  0  0  0  0
   -3.7270    2.2108   -0.8937 C   0  0  0  0  0  0  0  0  0  0  0  0
   -2.4172    1.7361   -0.8988 C   0  0  0  0  0  0  0  0  0  0  0  0
   -2.1284    0.4764   -0.3492 C   0  0  0  0  0  0  0  0  0  0  0  0
   -3.1559   -0.3058    0.2063 C   0  0  0  0  0  0  0  0  0  0  0  0
   -4.4718    0.1577    0.2178 C   0  0  0  0  0  0  0  0  0  0  0  0
   -4.7397    1.4156   -0.3357 C   0  0  0  0  0  0  0  0  0  0  0  0
   -6.0284    1.8946   -0.3369 O   0  0  0  0  0  0  0  0  0  0  0  0
   -5.5427   -0.5226    0.7316 O   0  0  0  0  0  0  0  0  0  0  0  0
   -5.2972   -1.7974    1.3084 C   0  0  0  0  0  0  0  0  0  0  0  0
   -0.7468   -0.0802   -0.3278 C   0  0  0  0  0  0  0  0  0  0  0  0
   -0.4673   -1.1675    0.1522 O   0  0  0  0  0  0  0  0  0  0  0  0
    0.1264    0.7833   -0.9038 O   0  0  0  0  0  0  0  0  0  0  0  0
    1.4967    0.3495   -0.9377 C   0  0  0  0  0  0  0  0  0  0  0  0
    2.1963    0.7484    0.3588 C   0  0  0  0  0  0  0  0  0  0  0  0
    3.6699    0.3487    0.3957 C   0  0  0  0  0  0  0  0  0  0  0  0
    3.8759   -1.1617    0.5156 C   0  0  0  0  0  0  0  0  0  0  0  0
    5.3121   -1.4183    0.5786 N   0  0  0  0  0  0  0  0  0  0  0  0
    5.7007   -2.6144    0.8088 C   0  0  0  0  0  0  0  0  0  0  0  0
    7.0200   -2.8886    0.8940 N   0  0  0  0  0  0  0  0  0  0  0  0
    4.9812   -3.7406    1.0064 N   0  0  0  0  0  0  0  0  0  0  0  0
   -2.4077    4.5495   -1.2199 H   0  0  0  0  0  0  0  0  0  0  0  0
   -2.6878    3.7861   -2.8343 H   0  0  0  0  0  0  0  0  0  0  0  0
   -3.6512    5.1731   -2.3111 H   0  0  0  0  0  0  0  0  0  0  0  0
   -1.6129    2.3273   -1.3226 H   0  0  0  0  0  0  0  0  0  0  0  0
   -2.8994   -1.2753    0.6237 H   0  0  0  0  0  0  0  0  0  0  0  0
   -5.9797    2.7708   -0.7628 H   0  0  0  0  0  0  0  0  0  0  0  0
   -4.6241   -1.7189    2.1685 H   0  0  0  0  0  0  0  0  0  0  0  0
   -4.9081   -2.4993    0.5636 H   0  0  0  0  0  0  0  0  0  0  0  0
   -6.2524   -2.1912    1.6689 H   0  0  0  0  0  0  0  0  0  0  0  0
    1.5538   -0.7264   -1.1347 H   0  0  0  0  0  0  0  0  0  0  0  0
    1.9683    0.8543   -1.7878 H   0  0  0  0  0  0  0  0  0  0  0  0
    1.6692    0.3232    1.2213 H   0  0  0  0  0  0  0  0  0  0  0  0
    2.1168    1.8368    0.4755 H   0  0  0  0  0  0  0  0  0  0  0  0
    4.1434    0.8400    1.2554 H   0  0  0  0  0  0  0  0  0  0  0  0
    4.1835    0.7281   -0.4965 H   0  0  0  0  0  0  0  0  0  0  0  0
    3.3741   -1.5246    1.4207 H   0  0  0  0  0  0  0  0  0  0  0  0
    3.4489   -1.6716   -0.3543 H   0  0  0  0  0  0  0  0  0  0  0  0
    7.2398   -3.4436    1.7120 H   0  0  0  0  0  0  0  0  0  0  0  0
    7.5447   -2.0188    0.9075 H   0  0  0  0  0  0  0  0  0  0  0  0
    5.4185   -4.5515    0.5839 H   0  0  0  0  0  0  0  0  0  0  0  0
    4.0107   -3.6698    0.7273 H   0  0  0  0  0  0  0  0  0  0  0  0
  1  2  1  0
  2  3  1  0
  3  4  2  0
  4  5  1  0
  5  6  2  0
  6  7  1  0
  7  8  2  0
  8  9  1  0
  7 10  1  0
 10 11  1  0
  5 12  1  0
 12 13  2  0
 12 14  1  0
 14 15  1  0
 15 16  1  0
 16 17  1  0
 17 18  1  0
 18 19  1  0
 19 20  2  3
 20 21  1  0
 20 22  1  0
  8  3  1  0
  1 23  1  0
  1 24  1  0
  1 25  1  0
  4 26  1  0
  6 27  1  0
  9 28  1  0
 11 29  1  0
 11 30  1  0
 11 31  1  0
 15 32  1  0
 15 33  1  0
 16 34  1  0
 16 35  1  0
 17 36  1  0
 17 37  1  0
 18 38  1  0
 18 39  1  0
 21 40  1  0
 21 41  1  0
 22 42  1  0
 22 43  1  0
M  END
$$$$
leonurine.sdf
     RDKit          3D

 43 43  0  0  0  0  0  0  0  0999 V2000
   -3.5259    4.4901   -2.7055 C   0  0  0  0  0  0  0  0  0  0  0  0
   -4.3790    3.6405   -1.9513 O   0  0  0  0  0  0  0  0  0  0  0  0
   -3.8051    2.5821   -1.3000 C   0  0  0  0  0  0  0  0  0  0  0  0
   -2.4465    2.2656   -1.3230 C   0  0  0  0  0  0  0  0  0  0  0  0
   -1.9614    1.1515   -0.6161 C   0  0  0  0  0  0  0  0  0  0  0  0
   -2.8418    0.3441    0.1224 C   0  0  0  0  0  0  0  0  0  0  0  0
   -4.2008    0.6492    0.1536 C   0  0  0  0  0  0  0  0  0  0  0  0
   -4.6670    1.7649   -0.5586 C   0  0  0  0  0  0  0  0  0  0  0  0
   -6.0102    2.0556   -0.5205 O   0  0  0  0  0  0  0  0  0  0  0  0
   -5.1687   -0.0498    0.8306 O   0  0  0  0  0  0  0  0  0  0  0  0
   -4.7419   -1.1877    1.5717 C   0  0  0  0  0  0  0  0  0  0  0  0
   -0.5002    0.8716   -0.6847 C   0  0  0  0  0  0  0  0  0  0  0  0
    0.2897    1.5563   -1.3153 O   0  0  0  0  0  0  0  0  0  0  0  0
   -0.1876   -0.2314    0.0399 O   0  0  0  0  0  0  0  0  0  0  0  0
    1.2073   -0.5671    0.0262 C   0  0  0  0  0  0  0  0  0  0  0  0
    1.3913   -1.8473    0.8336 C   0  0  0  0  0  0  0  0  0  0  0  0
    2.8244   -2.3767    0.8160 C   0  0  0  0  0  0  0  0  0  0  0  0
    3.8180   -1.4594    1.5268 C   0  0  0  0  0  0  0  0  0  0  0  0
    5.1198   -2.1155    1.5903 N   0  0  0  0  0  0  0  0  0  0  0  0
    6.0001   -1.8842    0.6950 C   0  0  0  0  0  0  0  0  0  0  0  0
    7.2137   -2.4700    0.7837 N   0  0  0  0  0  0  0  0  0  0  0  0
    5.9477   -1.1059   -0.4076 N   0  0  0  0  0  0  0  0  0  0  0  0
   -3.0453    3.9422   -3.5227 H   0  0  0  0  0  0  0  0  0  0  0  0
   -4.1443    5.2756   -3.1505 H   0  0  0  0  0  0  0  0  0  0  0  0
   -2.7835    4.9752   -2.0632 H   0  0  0  0  0  0  0  0  0  0  0  0
   -1.7393    2.8697   -1.8843 H   0  0  0  0  0  0  0  0  0  0  0  0
   -2.4512   -0.5115    0.6622 H   0  0  0  0  0  0  0  0  0  0  0  0
   -6.4092    1.3680    0.0448 H   0  0  0  0  0  0  0  0  0  0  0  0
   -4.0421   -0.9022    2.3640 H   0  0  0  0  0  0  0  0  0  0  0  0
   -5.6242   -1.6255    2.0483 H   0  0  0  0  0  0  0  0  0  0  0  0
   -4.3076   -1.9468    0.9129 H   0  0  0  0  0  0  0  0  0  0  0  0
    1.5361   -0.7248   -1.0078 H   0  0  0  0  0  0  0  0  0  0  0  0
    1.7747    0.2565    0.4724 H   0  0  0  0  0  0  0  0  0  0  0  0
    0.7219   -2.6182    0.4309 H   0  0  0  0  0  0  0  0  0  0  0  0
    1.0593   -1.6816    1.8661 H   0  0  0  0  0  0  0  0  0  0  0  0
    2.8357   -3.3604    1.3026 H   0  0  0  0  0  0  0  0  0  0  0  0
    3.1442   -2.5441   -0.2198 H   0  0  0  0  0  0  0  0  0  0  0  0
    3.8734   -0.4740    1.0526 H   0  0  0  0  0  0  0  0  0  0  0  0
    3.4813   -1.2809    2.5546 H   0  0  0  0  0  0  0  0  0  0  0  0
    7.9668   -1.8048    0.6566 H   0  0  0  0  0  0  0  0  0  0  0  0
    7.3005   -2.9284    1.6863 H   0  0  0  0  0  0  0  0  0  0  0  0
    6.4642   -1.5085   -1.1814 H   0  0  0  0  0  0  0  0  0  0  0  0
    5.0126   -0.8521   -0.6971 H   0  0  0  0  0  0  0  0  0  0  0  0
  1  2  1  0
  2  3  1  0
  3  4  2  0
  4  5  1  0
  5  6  2  0
  6  7  1  0
  7  8  2  0
  8  9  1  0
  7 10  1  0
 10 11  1  0
  5 12  1  0
 12 13  2  0
 12 14  1  0
 14 15  1  0
 15 16  1  0
 16 17  1  0
 17 18  1  0
 18 19  1  0
 19 20  2  3
 20 21  1  0
 20 22  1  0
  8  3  1  0
  1 23  1  0
  1 24  1  0
  1 25  1  0
  4 26  1  0
  6 27  1  0
  9 28  1  0
 11 29  1  0
 11 30  1  0
 11 31  1  0
 15 32  1  0
 15 33  1  0
 16 34  1  0
 16 35  1  0
 17 36  1  0
 17 37  1  0
 18 38  1  0
 18 39  1  0
 21 40  1  0
 21 41  1  0
 22 42  1  0
 22 43  1  0
M  END
$$$$
leonurine.sdf
     RDKit          3D

 43 43  0  0  0  0  0  0  0  0999 V2000
   -2.7794    3.8304   -3.0928 C   0  0  0  0  0  0  0  0  0  0  0  0
   -3.7841    3.0111   -2.5043 O   0  0  0  0  0  0  0  0  0  0  0  0
   -3.3774    2.1474   -1.5185 C   0  0  0  0  0  0  0  0  0  0  0  0
   -2.0781    2.0063   -1.0392 C   0  0  0  0  0  0  0  0  0  0  0  0
   -1.8010    1.0795   -0.0206 C   0  0  0  0  0  0  0  0  0  0  0  0
   -2.8321    0.2896    0.5166 C   0  0  0  0  0  0  0  0  0  0  0  0
   -4.1396    0.4208    0.0445 C   0  0  0  0  0  0  0  0  0  0  0  0
   -4.3946    1.3528   -0.9697 C   0  0  0  0  0  0  0  0  0  0  0  0
   -5.6750    1.4996   -1.4487 O   0  0  0  0  0  0  0  0  0  0  0  0
   -5.2160   -0.2949    0.4961 O   0  0  0  0  0  0  0  0  0  0  0  0
   -4.9854   -1.2679    1.5047 C   0  0  0  0  0  0  0  0  0  0  0  0
   -0.3924    0.9739    0.4523 C   0  0  0  0  0  0  0  0  0  0  0  0
    0.5225    1.6260   -0.0254 O   0  0  0  0  0  0  0  0  0  0  0  0
   -0.2930    0.0756    1.4624 O   0  0  0  0  0  0  0  0  0  0  0  0
    1.0261   -0.1291    1.9940 C   0  0  0  0  0  0  0  0  0  0  0  0
    1.7254   -1.2441    1.2239 C   0  0  0  0  0  0  0  0  0  0  0  0
    3.1136   -1.5338    1.7965 C   0  0  0  0  0  0  0  0  0  0  0  0
    3.8162   -2.6843    1.0764 C   0  0  0  0  0  0  0  0  0  0  0  0
    4.0374   -2.3600   -0.3280 N   0  0  0  0  0  0  0  0  0  0  0  0
    5.0650   -1.6915   -0.6837 C   0  0  0  0  0  0  0  0  0  0  0  0
    5.2396   -1.3795   -1.9860 N   0  0  0  0  0  0  0  0  0  0  0  0
    6.0782   -1.1797    0.0482 N   0  0  0  0  0  0  0  0  0  0  0  0
   -2.3318    4.4995   -2.3505 H   0  0  0  0  0  0  0  0  0  0  0  0
   -3.2600    4.4520   -3.8544 H   0  0  0  0  0  0  0  0  0  0  0  0
   -2.0169    3.2228   -3.5911 H   0  0  0  0  0  0  0  0  0  0  0  0
   -1.2608    2.6014   -1.4360 H   0  0  0  0  0  0  0  0  0  0  0  0
   -2.5973   -0.4218    1.3009 H   0  0  0  0  0  0  0  0  0  0  0  0
   -5.6161    2.1879   -2.1375 H   0  0  0  0  0  0  0  0  0  0  0  0
   -5.9424   -1.7472    1.7325 H   0  0  0  0  0  0  0  0  0  0  0  0
   -4.2991   -2.0458    1.1541 H   0  0  0  0  0  0  0  0  0  0  0  0
   -4.6193   -0.8024    2.4256 H   0  0  0  0  0  0  0  0  0  0  0  0
    1.6082    0.8001    1.9848 H   0  0  0  0  0  0  0  0  0  0  0  0
    0.9017   -0.4176    3.0434 H   0  0  0  0  0  0  0  0  0  0  0  0
    1.7966   -0.9648    0.1660 H   0  0  0  0  0  0  0  0  0  0  0  0
    1.1056   -2.1488    1.2548 H   0  0  0  0  0  0  0  0  0  0  0  0
    3.7270   -0.6265    1.7432 H   0  0  0  0  0  0  0  0  0  0  0  0
    3.0194   -1.7939    2.8578 H   0  0  0  0  0  0  0  0  0  0  0  0
    4.7486   -2.9444    1.5899 H   0  0  0  0  0  0  0  0  0  0  0  0
    3.1915   -3.5839    1.1255 H   0  0  0  0  0  0  0  0  0  0  0  0
    5.4486   -0.3965   -2.1124 H   0  0  0  0  0  0  0  0  0  0  0  0
    4.3993   -1.6238   -2.5026 H   0  0  0  0  0  0  0  0  0  0  0  0
    6.1564   -1.5584    0.9820 H   0  0  0  0  0  0  0  0  0  0  0  0
    6.9646   -1.2362   -0.4402 H   0  0  0  0  0  0  0  0  0  0  0  0
  1  2  1  0
  2  3  1  0
  3  4  2  0
  4  5  1  0
  5  6  2  0
  6  7  1  0
  7  8  2  0
  8  9  1  0
  7 10  1  0
 10 11  1  0
  5 12  1  0
 12 13  2  0
 12 14  1  0
 14 15  1  0
 15 16  1  0
 16 17  1  0
 17 18  1  0
 18 19  1  0
 19 20  2  3
 20 21  1  0
 20 22  1  0
  8  3  1  0
  1 23  1  0
  1 24  1  0
  1 25  1  0
  4 26  1  0
  6 27  1  0
  9 28  1  0
 11 29  1  0
 11 30  1  0
 11 31  1  0
 15 32  1  0
 15 33  1  0
 16 34  1  0
 16 35  1  0
 17 36  1  0
 17 37  1  0
 18 38  1  0
 18 39  1  0
 21 40  1  0
 21 41  1  0
 22 42  1  0
 22 43  1  0
M  END
$$$$
leonurine.sdf
     RDKit          3D

 43 43  0  0  0  0  0  0  0  0999 V2000
   -0.9241    2.7372   -2.2930 C   0  0  0  0  0  0  0  0  0  0  0  0
   -2.3090    2.4517   -2.1247 O   0  0  0  0  0  0  0  0  0  0  0  0
   -2.6432    1.5702   -1.1270 C   0  0  0  0  0  0  0  0  0  0  0  0
   -1.7533    0.9441   -0.2575 C   0  0  0  0  0  0  0  0  0  0  0  0
   -2.2371    0.0597    0.7207 C   0  0  0  0  0  0  0  0  0  0  0  0
   -3.6147   -0.1986    0.8230 C   0  0  0  0  0  0  0  0  0  0  0  0
   -4.5170    0.4230   -0.0409 C   0  0  0  0  0  0  0  0  0  0  0  0
   -4.0157    1.3036   -1.0077 C   0  0  0  0  0  0  0  0  0  0  0  0
   -4.8846    1.9285   -1.8708 O   0  0  0  0  0  0  0  0  0  0  0  0
   -5.8741    0.2436   -0.0254 O   0  0  0  0  0  0  0  0  0  0  0  0
   -6.4080   -0.6516    0.9399 C   0  0  0  0  0  0  0  0  0  0  0  0
   -1.3279   -0.6392    1.6709 C   0  0  0  0  0  0  0  0  0  0  0  0
   -1.7009   -1.4849    2.4678 O   0  0  0  0  0  0  0  0  0  0  0  0
   -0.0563   -0.1974    1.5193 O   0  0  0  0  0  0  0  0  0  0  0  0
    0.9041   -0.8364    2.3694 C   0  0  0  0  0  0  0  0  0  0  0  0
    2.2824   -0.2456    2.0847 C   0  0  0  0  0  0  0  0  0  0  0  0
    2.7307   -0.4960    0.6425 C   0  0  0  0  0  0  0  0  0  0  0  0
    4.1129    0.0967    0.3785 C   0  0  0  0  0  0  0  0  0  0  0  0
    4.4702   -0.0899   -1.0238 N   0  0  0  0  0  0  0  0  0  0  0  0
    5.0545   -1.1598   -1.4033 C   0  0  0  0  0  0  0  0  0  0  0  0
    5.4311   -2.2527   -0.7046 N   0  0  0  0  0  0  0  0  0  0  0  0
    5.3700   -1.3220   -2.7064 N   0  0  0  0  0  0  0  0  0  0  0  0
   -0.5093    3.2158   -1.3998 H   0  0  0  0  0  0  0  0  0  0  0  0
   -0.3642    1.8336   -2.5560 H   0  0  0  0  0  0  0  0  0  0  0  0
   -0.8278    3.4425   -3.1240 H   0  0  0  0  0  0  0  0  0  0  0  0
   -0.6864    1.1273   -0.3266 H   0  0  0  0  0  0  0  0  0  0  0  0
   -3.9552   -0.8901    1.5884 H   0  0  0  0  0  0  0  0  0  0  0  0
   -4.3246    2.4833   -2.4455 H   0  0  0  0  0  0  0  0  0  0  0  0
   -7.4940   -0.6767    0.8085 H   0  0  0  0  0  0  0  0  0  0  0  0
   -6.0310   -1.6682    0.7871 H   0  0  0  0  0  0  0  0  0  0  0  0
   -6.2043   -0.3023    1.9575 H   0  0  0  0  0  0  0  0  0  0  0  0
    0.9078   -1.9160    2.1786 H   0  0  0  0  0  0  0  0  0  0  0  0
    0.6401   -0.6533    3.4173 H   0  0  0  0  0  0  0  0  0  0  0  0
    3.0104   -0.6786    2.7802 H   0  0  0  0  0  0  0  0  0  0  0  0
    2.2534    0.8363    2.2632 H   0  0  0  0  0  0  0  0  0  0  0  0
    2.0104   -0.0566   -0.0586 H   0  0  0  0  0  0  0  0  0  0  0  0
    2.7428   -1.5746    0.4440 H   0  0  0  0  0  0  0  0  0  0  0  0
    4.0918    1.1748    0.5766 H   0  0  0  0  0  0  0  0  0  0  0  0
    4.8626   -0.3173    1.0619 H   0  0  0  0  0  0  0  0  0  0  0  0
    6.3111   -2.6310   -1.0368 H   0  0  0  0  0  0  0  0  0  0  0  0
    5.4502   -2.1281    0.2983 H   0  0  0  0  0  0  0  0  0  0  0  0
    4.9452   -0.5785   -3.2527 H   0  0  0  0  0  0  0  0  0  0  0  0
    5.0810   -2.2263   -3.0588 H   0  0  0  0  0  0  0  0  0  0  0  0
  1  2  1  0
  2  3  1  0
  3  4  2  0
  4  5  1  0
  5  6  2  0
  6  7  1  0
  7  8  2  0
  8  9  1  0
  7 10  1  0
 10 11  1  0
  5 12  1  0
 12 13  2  0
 12 14  1  0
 14 15  1  0
 15 16  1  0
 16 17  1  0
 17 18  1  0
 18 19  1  0
 19 20  2  3
 20 21  1  0
 20 22  1  0
  8  3  1  0
  1 23  1  0
  1 24  1  0
  1 25  1  0
  4 26  1  0
  6 27  1  0
  9 28  1  0
 11 29  1  0
 11 30  1  0
 11 31  1  0
 15 32  1  0
 15 33  1  0
 16 34  1  0
 16 35  1  0
 17 36  1  0
 17 37  1  0
 18 38  1  0
 18 39  1  0
 21 40  1  0
 21 41  1  0
 22 42  1  0
 22 43  1  0
M  END
$$$$
leonurine.sdf
     RDKit          3D

 43 43  0  0  0  0  0  0  0  0999 V2000
   -2.4910    3.4591   -3.5322 C   0  0  0  0  0  0  0  0  0  0  0  0
   -3.5565    2.8604   -2.8080 O   0  0  0  0  0  0  0  0  0  0  0  0
   -3.2294    2.0523   -1.7526 C   0  0  0  0  0  0  0  0  0  0  0  0
   -1.9298    1.7569   -1.3396 C   0  0  0  0  0  0  0  0  0  0  0  0
   -1.7047    0.9117   -0.2388 C   0  0  0  0  0  0  0  0  0  0  0  0
   -2.7898    0.3547    0.4575 C   0  0  0  0  0  0  0  0  0  0  0  0
   -4.0926    0.6414    0.0554 C   0  0  0  0  0  0  0  0  0  0  0  0
   -4.2975    1.4869   -1.0457 C   0  0  0  0  0  0  0  0  0  0  0  0
   -5.5877    1.7618   -1.4332 O   0  0  0  0  0  0  0  0  0  0  0  0
   -5.2400    0.1679    0.6415 O   0  0  0  0  0  0  0  0  0  0  0  0
   -5.0811   -0.6892    1.7667 C   0  0  0  0  0  0  0  0  0  0  0  0
   -0.2911    0.6380    0.1454 C   0  0  0  0  0  0  0  0  0  0  0  0
    0.6648    1.0959   -0.4591 O   0  0  0  0  0  0  0  0  0  0  0  0
   -0.2437   -0.1727    1.2309 O   0  0  0  0  0  0  0  0  0  0  0  0
    1.0693   -0.5163    1.7106 C   0  0  0  0  0  0  0  0  0  0  0  0
    1.6046   -1.7197    0.9413 C   0  0  0  0  0  0  0  0  0  0  0  0
    2.8500   -2.3581    1.5639 C   0  0  0  0  0  0  0  0  0  0  0  0
    3.9982   -1.3966    1.8693 C   0  0  0  0  0  0  0  0  0  0  0  0
    4.2937   -0.5516    0.7228 N   0  0  0  0  0  0  0  0  0  0  0  0
    5.0399   -0.9685   -0.2239 C   0  0  0  0  0  0  0  0  0  0  0  0
    5.6770   -2.1481   -0.3845 N   0  0  0  0  0  0  0  0  0  0  0  0
    5.2654   -0.1725   -1.2908 N   0  0  0  0  0  0  0  0  0  0  0  0
   -1.8998    4.1208   -2.8907 H   0  0  0  0  0  0  0  0  0  0  0  0
   -2.9287    4.0708   -4.3269 H   0  0  0  0  0  0  0  0  0  0  0  0
   -1.8604    2.6998   -4.0064 H   0  0  0  0  0  0  0  0  0  0  0  0
   -1.0689    2.1709   -1.8568 H   0  0  0  0  0  0  0  0  0  0  0  0
   -2.5989   -0.2958    1.3038 H   0  0  0  0  0  0  0  0  0  0  0  0
   -6.1557    1.2715   -0.8099 H   0  0  0  0  0  0  0  0  0  0  0  0
   -6.0794   -0.9726    2.1138 H   0  0  0  0  0  0  0  0  0  0  0  0
   -4.5770   -0.1710    2.5891 H   0  0  0  0  0  0  0  0  0  0  0  0
   -4.5511   -1.6069    1.4913 H   0  0  0  0  0  0  0  0  0  0  0  0
    0.9553   -0.7686    2.7703 H   0  0  0  0  0  0  0  0  0  0  0  0
    1.7383    0.3496    1.6539 H   0  0  0  0  0  0  0  0  0  0  0  0
    0.8181   -2.4816    0.8672 H   0  0  0  0  0  0  0  0  0  0  0  0
    1.8148   -1.4251   -0.0942 H   0  0  0  0  0  0  0  0  0  0  0  0
    2.5657   -2.8636    2.4951 H   0  0  0  0  0  0  0  0  0  0  0  0
    3.2036   -3.1435    0.8848 H   0  0  0  0  0  0  0  0  0  0  0  0
    3.7186   -0.7467    2.7065 H   0  0  0  0  0  0  0  0  0  0  0  0
    4.8793   -1.9498    2.2145 H   0  0  0  0  0  0  0  0  0  0  0  0
    6.5801   -2.0315   -0.8297 H   0  0  0  0  0  0  0  0  0  0  0  0
    5.7602   -2.6960    0.4611 H   0  0  0  0  0  0  0  0  0  0  0  0
    4.6493    0.6354   -1.2344 H   0  0  0  0  0  0  0  0  0  0  0  0
    5.1086   -0.6597   -2.1647 H   0  0  0  0  0  0  0  0  0  0  0  0
  1  2  1  0
  2  3  1  0
  3  4  2  0
  4  5  1  0
  5  6  2  0
  6  7  1  0
  7  8  2  0
  8  9  1  0
  7 10  1  0
 10 11  1  0
  5 12  1  0
 12 13  2  0
 12 14  1  0
 14 15  1  0
 15 16  1  0
 16 17  1  0
 17 18  1  0
 18 19  1  0
 19 20  2  3
 20 21  1  0
 20 22  1  0
  8  3  1  0
  1 23  1  0
  1 24  1  0
  1 25  1  0
  4 26  1  0
  6 27  1  0
  9 28  1  0
 11 29  1  0
 11 30  1  0
 11 31  1  0
 15 32  1  0
 15 33  1  0
 16 34  1  0
 16 35  1  0
 17 36  1  0
 17 37  1  0
 18 38  1  0
 18 39  1  0
 21 40  1  0
 21 41  1  0
 22 42  1  0
 22 43  1  0
M  END
$$$$
leonurine.sdf
     RDKit          3D

 43 43  0  0  0  0  0  0  0  0999 V2000
   -3.1554    3.9559   -3.2149 C   0  0  0  0  0  0  0  0  0  0  0  0
   -4.0222    3.3647   -2.2523 O   0  0  0  0  0  0  0  0  0  0  0  0
   -3.4926    2.3632   -1.4777 C   0  0  0  0  0  0  0  0  0  0  0  0
   -2.1900    1.8772   -1.5470 C   0  0  0  0  0  0  0  0  0  0  0  0
   -1.7786    0.8436   -0.6896 C   0  0  0  0  0  0  0  0  0  0  0  0
   -2.6788    0.2955    0.2405 C   0  0  0  0  0  0  0  0  0  0  0  0
   -3.9882    0.7735    0.3203 C   0  0  0  0  0  0  0  0  0  0  0  0
   -4.3777    1.8052   -0.5435 C   0  0  0  0  0  0  0  0  0  0  0  0
   -5.6623    2.2917   -0.4822 O   0  0  0  0  0  0  0  0  0  0  0  0
   -4.9436    0.3133    1.1865 O   0  0  0  0  0  0  0  0  0  0  0  0
   -4.5819   -0.7388    2.0693 C   0  0  0  0  0  0  0  0  0  0  0  0
   -0.3730    0.3651   -0.8095 C   0  0  0  0  0  0  0  0  0  0  0  0
    0.4213    0.8214   -1.6165 O   0  0  0  0  0  0  0  0  0  0  0  0
   -0.1258   -0.6206    0.0868 O   0  0  0  0  0  0  0  0  0  0  0  0
    1.2147   -1.1416    0.0482 C   0  0  0  0  0  0  0  0  0  0  0  0
    1.2885   -2.2894    1.0507 C   0  0  0  0  0  0  0  0  0  0  0  0
    2.5812   -3.1067    0.9915 C   0  0  0  0  0  0  0  0  0  0  0  0
    3.8385   -2.3379    1.3979 C   0  0  0  0  0  0  0  0  0  0  0  0
    4.2084   -1.4249    0.3242 N   0  0  0  0  0  0  0  0  0  0  0  0
    5.2947   -0.7607    0.4328 C   0  0  0  0  0  0  0  0  0  0  0  0
    6.2120   -0.7509    1.4241 N   0  0  0  0  0  0  0  0  0  0  0  0
    5.6658    0.0870   -0.5496 N   0  0  0  0  0  0  0  0  0  0  0  0
   -2.8253    3.2183   -3.9538 H   0  0  0  0  0  0  0  0  0  0  0  0
   -3.7226    4.7272   -3.7447 H   0  0  0  0  0  0  0  0  0  0  0  0
   -2.3025    4.4428   -2.7308 H   0  0  0  0  0  0  0  0  0  0  0  0
   -1.4721    2.2806   -2.2552 H   0  0  0  0  0  0  0  0  0  0  0  0
   -2.3413   -0.5021    0.8934 H   0  0  0  0  0  0  0  0  0  0  0  0
   -5.7065    2.9903   -1.1617 H   0  0  0  0  0  0  0  0  0  0  0  0
   -5.4580   -0.9804    2.6789 H   0  0  0  0  0  0  0  0  0  0  0  0
   -4.3034   -1.6413    1.5152 H   0  0  0  0  0  0  0  0  0  0  0  0
   -3.7807   -0.4273    2.7475 H   0  0  0  0  0  0  0  0  0  0  0  0
    1.9036   -0.3373    0.3239 H   0  0  0  0  0  0  0  0  0  0  0  0
    1.4374   -1.5027   -0.9623 H   0  0  0  0  0  0  0  0  0  0  0  0
    0.4418   -2.9655    0.8736 H   0  0  0  0  0  0  0  0  0  0  0  0
    1.1371   -1.8960    2.0638 H   0  0  0  0  0  0  0  0  0  0  0  0
    2.7048   -3.5278   -0.0138 H   0  0  0  0  0  0  0  0  0  0  0  0
    2.4674   -3.9557    1.6772 H   0  0  0  0  0  0  0  0  0  0  0  0
    4.6440   -3.0623    1.5689 H   0  0  0  0  0  0  0  0  0  0  0  0
    3.6567   -1.7932    2.3317 H   0  0  0  0  0  0  0  0  0  0  0  0
    6.5946    0.1754    1.5769 H   0  0  0  0  0  0  0  0  0  0  0  0
    5.8890   -1.1548    2.2935 H   0  0  0  0  0  0  0  0  0  0  0  0
    5.0504   -0.0276   -1.3505 H   0  0  0  0  0  0  0  0  0  0  0  0
    6.6305   -0.0462   -0.8270 H   0  0  0  0  0  0  0  0  0  0  0  0
  1  2  1  0
  2  3  1  0
  3  4  2  0
  4  5  1  0
  5  6  2  0
  6  7  1  0
  7  8  2  0
  8  9  1  0
  7 10  1  0
 10 11  1  0
  5 12  1  0
 12 13  2  0
 12 14  1  0
 14 15  1  0
 15 16  1  0
 16 17  1  0
 17 18  1  0
 18 19  1  0
 19 20  2  3
 20 21  1  0
 20 22  1  0
  8  3  1  0
  1 23  1  0
  1 24  1  0
  1 25  1  0
  4 26  1  0
  6 27  1  0
  9 28  1  0
 11 29  1  0
 11 30  1  0
 11 31  1  0
 15 32  1  0
 15 33  1  0
 16 34  1  0
 16 35  1  0
 17 36  1  0
 17 37  1  0
 18 38  1  0
 18 39  1  0
 21 40  1  0
 21 41  1  0
 22 42  1  0
 22 43  1  0
M  END
$$$$
leonurine.sdf
     RDKit          3D

 43 43  0  0  0  0  0  0  0  0999 V2000
   -4.6096    3.6247   -3.3321 C   0  0  0  0  0  0  0  0  0  0  0  0
   -4.9659    2.9815   -2.1164 O   0  0  0  0  0  0  0  0  0  0  0  0
   -4.0251    2.1842   -1.5221 C   0  0  0  0  0  0  0  0  0  0  0  0
   -2.7420    1.9498   -2.0174 C   0  0  0  0  0  0  0  0  0  0  0  0
   -1.8520    1.1105   -1.3249 C   0  0  0  0  0  0  0  0  0  0  0  0
   -2.2469    0.4979   -0.1244 C   0  0  0  0  0  0  0  0  0  0  0  0
   -3.5254    0.7233    0.3809 C   0  0  0  0  0  0  0  0  0  0  0  0
   -4.4002    1.5643   -0.3240 C   0  0  0  0  0  0  0  0  0  0  0  0
   -5.6593    1.7792    0.1848 O   0  0  0  0  0  0  0  0  0  0  0  0
   -4.0406    0.1919    1.5369 O   0  0  0  0  0  0  0  0  0  0  0  0
   -3.1900   -0.6720    2.2826 C   0  0  0  0  0  0  0  0  0  0  0  0
   -0.4978    0.9047   -1.9100 C   0  0  0  0  0  0  0  0  0  0  0  0
   -0.1284    1.4228   -2.9516 O   0  0  0  0  0  0  0  0  0  0  0  0
    0.2389    0.0772   -1.1289 O   0  0  0  0  0  0  0  0  0  0  0  0
    1.5664   -0.1674   -1.6138 C   0  0  0  0  0  0  0  0  0  0  0  0
    2.2864   -1.0996   -0.6441 C   0  0  0  0  0  0  0  0  0  0  0  0
    2.4699   -0.4622    0.7384 C   0  0  0  0  0  0  0  0  0  0  0  0
    3.2081   -1.3838    1.7095 C   0  0  0  0  0  0  0  0  0  0  0  0
    4.5825   -1.5553    1.2501 N   0  0  0  0  0  0  0  0  0  0  0  0
    5.3424   -2.3561    1.8942 C   0  0  0  0  0  0  0  0  0  0  0  0
    6.6126   -2.5563    1.4833 N   0  0  0  0  0  0  0  0  0  0  0  0
    5.0887   -3.1025    2.9914 N   0  0  0  0  0  0  0  0  0  0  0  0
   -4.3882    2.8928   -4.1159 H   0  0  0  0  0  0  0  0  0  0  0  0
   -5.4693    4.2156   -3.6625 H   0  0  0  0  0  0  0  0  0  0  0  0
   -3.7706    4.3125   -3.1838 H   0  0  0  0  0  0  0  0  0  0  0  0
   -2.4052    2.4082   -2.9430 H   0  0  0  0  0  0  0  0  0  0  0  0
   -1.5476   -0.1464    0.3970 H   0  0  0  0  0  0  0  0  0  0  0  0
   -5.6990    1.2583    1.0085 H   0  0  0  0  0  0  0  0  0  0  0  0
   -2.2987   -0.1413    2.6331 H   0  0  0  0  0  0  0  0  0  0  0  0
   -2.9205   -1.5591    1.7001 H   0  0  0  0  0  0  0  0  0  0  0  0
   -3.7454   -1.0081    3.1635 H   0  0  0  0  0  0  0  0  0  0  0  0
    1.5074   -0.6458   -2.5983 H   0  0  0  0  0  0  0  0  0  0  0  0
    2.1100    0.7806   -1.7032 H   0  0  0  0  0  0  0  0  0  0  0  0
    3.2602   -1.3657   -1.0698 H   0  0  0  0  0  0  0  0  0  0  0  0
    1.7071   -2.0242   -0.5330 H   0  0  0  0  0  0  0  0  0  0  0  0
    1.4889   -0.2223    1.1654 H   0  0  0  0  0  0  0  0  0  0  0  0
    3.0184    0.4825    0.6373 H   0  0  0  0  0  0  0  0  0  0  0  0
    2.6875   -2.3469    1.7715 H   0  0  0  0  0  0  0  0  0  0  0  0
    3.2012   -0.9193    2.7027 H   0  0  0  0  0  0  0  0  0  0  0  0
    6.8481   -3.5400    1.4353 H   0  0  0  0  0  0  0  0  0  0  0  0
    6.7489   -2.1172    0.5773 H   0  0  0  0  0  0  0  0  0  0  0  0
    5.8916   -3.1522    3.6083 H   0  0  0  0  0  0  0  0  0  0  0  0
    4.2627   -2.8189    3.5020 H   0  0  0  0  0  0  0  0  0  0  0  0
  1  2  1  0
  2  3  1  0
  3  4  2  0
  4  5  1  0
  5  6  2  0
  6  7  1  0
  7  8  2  0
  8  9  1  0
  7 10  1  0
 10 11  1  0
  5 12  1  0
 12 13  2  0
 12 14  1  0
 14 15  1  0
 15 16  1  0
 16 17  1  0
 17 18  1  0
 18 19  1  0
 19 20  2  3
 20 21  1  0
 20 22  1  0
  8  3  1  0
  1 23  1  0
  1 24  1  0
  1 25  1  0
  4 26  1  0
  6 27  1  0
  9 28  1  0
 11 29  1  0
 11 30  1  0
 11 31  1  0
 15 32  1  0
 15 33  1  0
 16 34  1  0
 16 35  1  0
 17 36  1  0
 17 37  1  0
 18 38  1  0
 18 39  1  0
 21 40  1  0
 21 41  1  0
 22 42  1  0
 22 43  1  0
M  END
$$$$
leonurine.sdf
     RDKit          3D

 43 43  0  0  0  0  0  0  0  0999 V2000
   -0.7787    3.5932   -0.2826 C   0  0  0  0  0  0  0  0  0  0  0  0
   -2.1698    3.3358   -0.1203 O   0  0  0  0  0  0  0  0  0  0  0  0
   -2.5679    2.0234   -0.1767 C   0  0  0  0  0  0  0  0  0  0  0  0
   -1.7378    0.9260   -0.3931 C   0  0  0  0  0  0  0  0  0  0  0  0
   -2.2836   -0.3678   -0.4253 C   0  0  0  0  0  0  0  0  0  0  0  0
   -3.6629   -0.5597   -0.2364 C   0  0  0  0  0  0  0  0  0  0  0  0
   -4.5058    0.5311   -0.0200 C   0  0  0  0  0  0  0  0  0  0  0  0
   -3.9433    1.8134    0.0059 C   0  0  0  0  0  0  0  0  0  0  0  0
   -4.7528    2.9044    0.2174 O   0  0  0  0  0  0  0  0  0  0  0  0
   -5.8590    0.4553    0.1727 O   0  0  0  0  0  0  0  0  0  0  0  0
   -6.4537   -0.8348    0.1600 C   0  0  0  0  0  0  0  0  0  0  0  0
   -1.4395   -1.5745   -0.6478 C   0  0  0  0  0  0  0  0  0  0  0  0
   -1.8621   -2.7177   -0.5864 O   0  0  0  0  0  0  0  0  0  0  0  0
   -0.1638   -1.2136   -0.9264 O   0  0  0  0  0  0  0  0  0  0  0  0
    0.7381   -2.3094   -1.1240 C   0  0  0  0  0  0  0  0  0  0  0  0
    2.1285   -1.7542   -1.4208 C   0  0  0  0  0  0  0  0  0  0  0  0
    2.6812   -0.9296   -0.2554 C   0  0  0  0  0  0  0  0  0  0  0  0
    4.0741   -0.3878   -0.5683 C   0  0  0  0  0  0  0  0  0  0  0  0
    4.5326    0.4577    0.5288 N   0  0  0  0  0  0  0  0  0  0  0  0
    5.1512   -0.0539    1.5218 C   0  0  0  0  0  0  0  0  0  0  0  0
    5.4853   -1.3358    1.7854 N   0  0  0  0  0  0  0  0  0  0  0  0
    5.5608    0.7404    2.5343 N   0  0  0  0  0  0  0  0  0  0  0  0
   -0.1943    3.1175    0.5118 H   0  0  0  0  0  0  0  0  0  0  0  0
   -0.6286    4.6743   -0.2049 H   0  0  0  0  0  0  0  0  0  0  0  0
   -0.4330    3.2790   -1.2729 H   0  0  0  0  0  0  0  0  0  0  0  0
   -0.6702    1.0556   -0.5346 H   0  0  0  0  0  0  0  0  0  0  0  0
   -4.0520   -1.5736   -0.2641 H   0  0  0  0  0  0  0  0  0  0  0  0
   -4.1574    3.6768    0.1959 H   0  0  0  0  0  0  0  0  0  0  0  0
   -6.0587   -1.4599    0.9676 H   0  0  0  0  0  0  0  0  0  0  0  0
   -6.3264   -1.3187   -0.8140 H   0  0  0  0  0  0  0  0  0  0  0  0
   -7.5273   -0.7100    0.3312 H   0  0  0  0  0  0  0  0  0  0  0  0
    0.7640   -2.9351   -0.2241 H   0  0  0  0  0  0  0  0  0  0  0  0
    0.3980   -2.9107   -1.9750 H   0  0  0  0  0  0  0  0  0  0  0  0
    2.0781   -1.1171   -2.3122 H   0  0  0  0  0  0  0  0  0  0  0  0
    2.8080   -2.5850   -1.6429 H   0  0  0  0  0  0  0  0  0  0  0  0
    2.7162   -1.5494    0.6487 H   0  0  0  0  0  0  0  0  0  0  0  0
    2.0097   -0.0907   -0.0343 H   0  0  0  0  0  0  0  0  0  0  0  0
    4.0303    0.2324   -1.4714 H   0  0  0  0  0  0  0  0  0  0  0  0
    4.7760   -1.1976   -0.7967 H   0  0  0  0  0  0  0  0  0  0  0  0
    6.3898   -1.4070    2.2377 H   0  0  0  0  0  0  0  0  0  0  0  0
    5.4313   -1.9591    0.9916 H   0  0  0  0  0  0  0  0  0  0  0  0
    5.3050    0.3660    3.4398 H   0  0  0  0  0  0  0  0  0  0  0  0
    5.1704    1.6704    2.4143 H   0  0  0  0  0  0  0  0  0  0  0  0
  1  2  1  0
  2  3  1  0
  3  4  2  0
  4  5  1  0
  5  6  2  0
  6  7  1  0
  7  8  2  0
  8  9  1  0
  7 10  1  0
 10 11  1  0
  5 12  1  0
 12 13  2  0
 12 14  1  0
 14 15  1  0
 15 16  1  0
 16 17  1  0
 17 18  1  0
 18 19  1  0
 19 20  2  3
 20 21  1  0
 20 22  1  0
  8  3  1  0
  1 23  1  0
  1 24  1  0
  1 25  1  0
  4 26  1  0
  6 27  1  0
  9 28  1  0
 11 29  1  0
 11 30  1  0
 11 31  1  0
 15 32  1  0
 15 33  1  0
 16 34  1  0
 16 35  1  0
 17 36  1  0
 17 37  1  0
 18 38  1  0
 18 39  1  0
 21 40  1  0
 21 41  1  0
 22 42  1  0
 22 43  1  0
M  END
$$$$
leonurine.sdf
     RDKit          3D

 43 43  0  0  0  0  0  0  0  0999 V2000
   -3.5621    4.6818   -1.9781 C   0  0  0  0  0  0  0  0  0  0  0  0
   -4.1978    3.4290   -1.7666 O   0  0  0  0  0  0  0  0  0  0  0  0
   -3.4853    2.4592   -1.1141 C   0  0  0  0  0  0  0  0  0  0  0  0
   -2.1746    2.5967   -0.6559 C   0  0  0  0  0  0  0  0  0  0  0  0
   -1.5335    1.5330    0.0025 C   0  0  0  0  0  0  0  0  0  0  0  0
   -2.2091    0.3189    0.2084 C   0  0  0  0  0  0  0  0  0  0  0  0
   -3.5182    0.1687   -0.2436 C   0  0  0  0  0  0  0  0  0  0  0  0
   -4.1410    1.2405   -0.9012 C   0  0  0  0  0  0  0  0  0  0  0  0
   -5.4326    1.0797   -1.3442 O   0  0  0  0  0  0  0  0  0  0  0  0
   -4.2925   -0.9570   -0.1112 O   0  0  0  0  0  0  0  0  0  0  0  0
   -3.7092   -2.0626    0.5699 C   0  0  0  0  0  0  0  0  0  0  0  0
   -0.1324    1.7465    0.4613 C   0  0  0  0  0  0  0  0  0  0  0  0
    0.4652    2.8017    0.3258 O   0  0  0  0  0  0  0  0  0  0  0  0
    0.3592    0.6149    1.0214 O   0  0  0  0  0  0  0  0  0  0  0  0
    1.7136    0.6837    1.4956 C   0  0  0  0  0  0  0  0  0  0  0  0
    2.7088    0.4236    0.3674 C   0  0  0  0  0  0  0  0  0  0  0  0
    2.4458   -0.8579   -0.4338 C   0  0  0  0  0  0  0  0  0  0  0  0
    2.3614   -2.1335    0.4030 C   0  0  0  0  0  0  0  0  0  0  0  0
    3.5539   -2.2899    1.2284 N   0  0  0  0  0  0  0  0  0  0  0  0
    4.5610   -2.9352    0.7811 C   0  0  0  0  0  0  0  0  0  0  0  0
    4.7611   -3.5266   -0.4166 N   0  0  0  0  0  0  0  0  0  0  0  0
    5.6490   -3.1043    1.5626 N   0  0  0  0  0  0  0  0  0  0  0  0
   -3.3067    5.1610   -1.0272 H   0  0  0  0  0  0  0  0  0  0  0  0
   -2.6795    4.5735   -2.6170 H   0  0  0  0  0  0  0  0  0  0  0  0
   -4.2710    5.3331   -2.4985 H   0  0  0  0  0  0  0  0  0  0  0  0
   -1.6242    3.5224   -0.7987 H   0  0  0  0  0  0  0  0  0  0  0  0
   -1.7007   -0.4909    0.7201 H   0  0  0  0  0  0  0  0  0  0  0  0
   -5.6836    0.1724   -1.0888 H   0  0  0  0  0  0  0  0  0  0  0  0
   -4.4516   -2.8660    0.5984 H   0  0  0  0  0  0  0  0  0  0  0  0
   -3.4600   -1.8021    1.6038 H   0  0  0  0  0  0  0  0  0  0  0  0
   -2.8323   -2.4380    0.0324 H   0  0  0  0  0  0  0  0  0  0  0  0
    1.8170   -0.0711    2.2819 H   0  0  0  0  0  0  0  0  0  0  0  0
    1.9097    1.6518    1.9724 H   0  0  0  0  0  0  0  0  0  0  0  0
    2.6784    1.2628   -0.3381 H   0  0  0  0  0  0  0  0  0  0  0  0
    3.7229    0.4046    0.7833 H   0  0  0  0  0  0  0  0  0  0  0  0
    3.2456   -0.9624   -1.1771 H   0  0  0  0  0  0  0  0  0  0  0  0
    1.5130   -0.7488   -1.0004 H   0  0  0  0  0  0  0  0  0  0  0  0
    2.1893   -2.9999   -0.2466 H   0  0  0  0  0  0  0  0  0  0  0  0
    1.4886   -2.0935    1.0641 H   0  0  0  0  0  0  0  0  0  0  0  0
    5.7220   -3.4355   -0.7270 H   0  0  0  0  0  0  0  0  0  0  0  0
    4.1245   -3.2209   -1.1410 H   0  0  0  0  0  0  0  0  0  0  0  0
    5.4387   -2.7984    2.5082 H   0  0  0  0  0  0  0  0  0  0  0  0
    5.9692   -4.0651    1.5682 H   0  0  0  0  0  0  0  0  0  0  0  0
  1  2  1  0
  2  3  1  0
  3  4  2  0
  4  5  1  0
  5  6  2  0
  6  7  1  0
  7  8  2  0
  8  9  1  0
  7 10  1  0
 10 11  1  0
  5 12  1  0
 12 13  2  0
 12 14  1  0
 14 15  1  0
 15 16  1  0
 16 17  1  0
 17 18  1  0
 18 19  1  0
 19 20  2  3
 20 21  1  0
 20 22  1  0
  8  3  1  0
  1 23  1  0
  1 24  1  0
  1 25  1  0
  4 26  1  0
  6 27  1  0
  9 28  1  0
 11 29  1  0
 11 30  1  0
 11 31  1  0
 15 32  1  0
 15 33  1  0
 16 34  1  0
 16 35  1  0
 17 36  1  0
 17 37  1  0
 18 38  1  0
 18 39  1  0
 21 40  1  0
 21 41  1  0
 22 42  1  0
 22 43  1  0
M  END
$$$$
leonurine.sdf
     RDKit          3D

 43 43  0  0  0  0  0  0  0  0999 V2000
   -1.7365    4.0700   -0.5340 C   0  0  0  0  0  0  0  0  0  0  0  0
   -2.9321    3.3710   -0.2048 O   0  0  0  0  0  0  0  0  0  0  0  0
   -2.8880    2.0007   -0.2704 C   0  0  0  0  0  0  0  0  0  0  0  0
   -1.7756    1.2335   -0.6088 C   0  0  0  0  0  0  0  0  0  0  0  0
   -1.8746   -0.1674   -0.6348 C   0  0  0  0  0  0  0  0  0  0  0  0
   -3.0920   -0.7970   -0.3230 C   0  0  0  0  0  0  0  0  0  0  0  0
   -4.2135   -0.0403    0.0180 C   0  0  0  0  0  0  0  0  0  0  0  0
   -4.0943    1.3547    0.0407 C   0  0  0  0  0  0  0  0  0  0  0  0
   -5.1847    2.1225    0.3749 O   0  0  0  0  0  0  0  0  0  0  0  0
   -5.4416   -0.5523    0.3398 O   0  0  0  0  0  0  0  0  0  0  0  0
   -5.5955   -1.9642    0.3028 C   0  0  0  0  0  0  0  0  0  0  0  0
   -0.7162   -1.0355   -0.9857 C   0  0  0  0  0  0  0  0  0  0  0  0
   -0.7817   -2.2524   -1.0519 O   0  0  0  0  0  0  0  0  0  0  0  0
    0.3903   -0.2846   -1.2046 O   0  0  0  0  0  0  0  0  0  0  0  0
    1.5664   -1.0385   -1.5289 C   0  0  0  0  0  0  0  0  0  0  0  0
    2.7365   -0.0766   -1.7112 C   0  0  0  0  0  0  0  0  0  0  0  0
    3.0085    0.8316   -0.5042 C   0  0  0  0  0  0  0  0  0  0  0  0
    3.2408    0.0921    0.8136 C   0  0  0  0  0  0  0  0  0  0  0  0
    4.3670   -0.8212    0.6553 N   0  0  0  0  0  0  0  0  0  0  0  0
    4.6460   -1.6122    1.6199 C   0  0  0  0  0  0  0  0  0  0  0  0
    4.0592   -1.7504    2.8286 N   0  0  0  0  0  0  0  0  0  0  0  0
    5.6654   -2.4888    1.4988 N   0  0  0  0  0  0  0  0  0  0  0  0
   -1.4376    3.8745   -1.5691 H   0  0  0  0  0  0  0  0  0  0  0  0
   -1.9405    5.1411   -0.4428 H   0  0  0  0  0  0  0  0  0  0  0  0
   -0.9309    3.8233    0.1653 H   0  0  0  0  0  0  0  0  0  0  0  0
   -0.8295    1.7031   -0.8545 H   0  0  0  0  0  0  0  0  0  0  0  0
   -3.1348   -1.8821   -0.3530 H   0  0  0  0  0  0  0  0  0  0  0  0
   -4.8778    3.0469    0.3221 H   0  0  0  0  0  0  0  0  0  0  0  0
   -5.4206   -2.3546   -0.7052 H   0  0  0  0  0  0  0  0  0  0  0  0
   -6.6303   -2.1951    0.5736 H   0  0  0  0  0  0  0  0  0  0  0  0
   -4.9435   -2.4514    1.0352 H   0  0  0  0  0  0  0  0  0  0  0  0
    1.3982   -1.5819   -2.4662 H   0  0  0  0  0  0  0  0  0  0  0  0
    1.7785   -1.7633   -0.7351 H   0  0  0  0  0  0  0  0  0  0  0  0
    2.5264    0.5738   -2.5697 H   0  0  0  0  0  0  0  0  0  0  0  0
    3.6371   -0.6491   -1.9611 H   0  0  0  0  0  0  0  0  0  0  0  0
    2.1713    1.5281   -0.3739 H   0  0  0  0  0  0  0  0  0  0  0  0
    3.8894    1.4451   -0.7319 H   0  0  0  0  0  0  0  0  0  0  0  0
    3.4648    0.8321    1.5913 H   0  0  0  0  0  0  0  0  0  0  0  0
    2.3306   -0.4423    1.1087 H   0  0  0  0  0  0  0  0  0  0  0  0
    3.4635   -0.9765    3.0929 H   0  0  0  0  0  0  0  0  0  0  0  0
    4.7338   -1.9503    3.5584 H   0  0  0  0  0  0  0  0  0  0  0  0
    5.3988   -3.4245    1.7804 H   0  0  0  0  0  0  0  0  0  0  0  0
    5.9991   -2.4917    0.5394 H   0  0  0  0  0  0  0  0  0  0  0  0
  1  2  1  0
  2  3  1  0
  3  4  2  0
  4  5  1  0
  5  6  2  0
  6  7  1  0
  7  8  2  0
  8  9  1  0
  7 10  1  0
 10 11  1  0
  5 12  1  0
 12 13  2  0
 12 14  1  0
 14 15  1  0
 15 16  1  0
 16 17  1  0
 17 18  1  0
 18 19  1  0
 19 20  2  3
 20 21  1  0
 20 22  1  0
  8  3  1  0
  1 23  1  0
  1 24  1  0
  1 25  1  0
  4 26  1  0
  6 27  1  0
  9 28  1  0
 11 29  1  0
 11 30  1  0
 11 31  1  0
 15 32  1  0
 15 33  1  0
 16 34  1  0
 16 35  1  0
 17 36  1  0
 17 37  1  0
 18 38  1  0
 18 39  1  0
 21 40  1  0
 21 41  1  0
 22 42  1  0
 22 43  1  0
M  END
$$$$
leonurine.sdf
     RDKit          3D

 43 43  0  0  0  0  0  0  0  0999 V2000
   -2.2927    4.5003   -0.6797 C   0  0  0  0  0  0  0  0  0  0  0  0
   -3.5154    3.7879   -0.5594 O   0  0  0  0  0  0  0  0  0  0  0  0
   -3.4579    2.4199   -0.5555 C   0  0  0  0  0  0  0  0  0  0  0  0
   -2.2863    1.6647   -0.6369 C   0  0  0  0  0  0  0  0  0  0  0  0
   -2.3452    0.2604   -0.6231 C   0  0  0  0  0  0  0  0  0  0  0  0
   -3.5843   -0.3945   -0.5281 C   0  0  0  0  0  0  0  0  0  0  0  0
   -4.7597    0.3467   -0.4459 C   0  0  0  0  0  0  0  0  0  0  0  0
   -4.6828    1.7471   -0.4598 C   0  0  0  0  0  0  0  0  0  0  0  0
   -5.8487    2.4710   -0.3774 O   0  0  0  0  0  0  0  0  0  0  0  0
   -6.0299   -0.1635   -0.3488 O   0  0  0  0  0  0  0  0  0  0  0  0
   -6.1518   -1.5821   -0.3394 C   0  0  0  0  0  0  0  0  0  0  0  0
   -1.1221   -0.5854   -0.7057 C   0  0  0  0  0  0  0  0  0  0  0  0
   -1.1519   -1.8057   -0.7027 O   0  0  0  0  0  0  0  0  0  0  0  0
   -0.0088    0.1851   -0.7738 O   0  0  0  0  0  0  0  0  0  0  0  0
    1.2400   -0.5222   -0.8659 C   0  0  0  0  0  0  0  0  0  0  0  0
    1.7523   -0.8495    0.5343 C   0  0  0  0  0  0  0  0  0  0  0  0
    3.0734   -1.6171    0.5353 C   0  0  0  0  0  0  0  0  0  0  0  0
    4.2504   -0.7916    0.0184 C   0  0  0  0  0  0  0  0  0  0  0  0
    5.4717   -1.5876    0.0838 N   0  0  0  0  0  0  0  0  0  0  0  0
    6.2219   -1.5257    1.1152 C   0  0  0  0  0  0  0  0  0  0  0  0
    7.3691   -2.2370    1.1528 N   0  0  0  0  0  0  0  0  0  0  0  0
    6.0754   -0.8314    2.2647 N   0  0  0  0  0  0  0  0  0  0  0  0
   -2.5263    5.5693   -0.6771 H   0  0  0  0  0  0  0  0  0  0  0  0
   -1.7932    4.2713   -1.6268 H   0  0  0  0  0  0  0  0  0  0  0  0
   -1.6350    4.3016    0.1729 H   0  0  0  0  0  0  0  0  0  0  0  0
   -1.3201    2.1517   -0.7111 H   0  0  0  0  0  0  0  0  0  0  0  0
   -3.5986   -1.4806   -0.5201 H   0  0  0  0  0  0  0  0  0  0  0  0
   -6.5620    1.8077   -0.3219 H   0  0  0  0  0  0  0  0  0  0  0  0
   -5.7781   -2.0162   -1.2726 H   0  0  0  0  0  0  0  0  0  0  0  0
   -5.6471   -2.0152    0.5304 H   0  0  0  0  0  0  0  0  0  0  0  0
   -7.2160   -1.8247   -0.2619 H   0  0  0  0  0  0  0  0  0  0  0  0
    1.9331    0.1478   -1.3836 H   0  0  0  0  0  0  0  0  0  0  0  0
    1.1390   -1.4221   -1.4842 H   0  0  0  0  0  0  0  0  0  0  0  0
    0.9986   -1.4463    1.0627 H   0  0  0  0  0  0  0  0  0  0  0  0
    1.8504    0.0764    1.1146 H   0  0  0  0  0  0  0  0  0  0  0  0
    2.9716   -2.5328   -0.0605 H   0  0  0  0  0  0  0  0  0  0  0  0
    3.2827   -1.9419    1.5621 H   0  0  0  0  0  0  0  0  0  0  0  0
    4.3382    0.1569    0.5610 H   0  0  0  0  0  0  0  0  0  0  0  0
    4.0907   -0.5246   -1.0316 H   0  0  0  0  0  0  0  0  0  0  0  0
    7.5477   -2.6364    0.2357 H   0  0  0  0  0  0  0  0  0  0  0  0
    8.1570   -1.6736    1.4480 H   0  0  0  0  0  0  0  0  0  0  0  0
    5.1322   -0.5064    2.4324 H   0  0  0  0  0  0  0  0  0  0  0  0
    6.4184   -1.3518    3.0643 H   0  0  0  0  0  0  0  0  0  0  0  0
  1  2  1  0
  2  3  1  0
  3  4  2  0
  4  5  1  0
  5  6  2  0
  6  7  1  0
  7  8  2  0
  8  9  1  0
  7 10  1  0
 10 11  1  0
  5 12  1  0
 12 13  2  0
 12 14  1  0
 14 15  1  0
 15 16  1  0
 16 17  1  0
 17 18  1  0
 18 19  1  0
 19 20  2  3
 20 21  1  0
 20 22  1  0
  8  3  1  0
  1 23  1  0
  1 24  1  0
  1 25  1  0
  4 26  1  0
  6 27  1  0
  9 28  1  0
 11 29  1  0
 11 30  1  0
 11 31  1  0
 15 32  1  0
 15 33  1  0
 16 34  1  0
 16 35  1  0
 17 36  1  0
 17 37  1  0
 18 38  1  0
 18 39  1  0
 21 40  1  0
 21 41  1  0
 22 42  1  0
 22 43  1  0
M  END
$$$$
leonurine.sdf
     RDKit          3D

 43 43  0  0  0  0  0  0  0  0999 V2000
   -1.6793    4.0278   -0.7014 C   0  0  0  0  0  0  0  0  0  0  0  0
   -2.9668    3.4812   -0.9495 O   0  0  0  0  0  0  0  0  0  0  0  0
   -3.1377    2.1381   -0.7457 C   0  0  0  0  0  0  0  0  0  0  0  0
   -2.1420    1.2574   -0.3184 C   0  0  0  0  0  0  0  0  0  0  0  0
   -2.4298   -0.1071   -0.1419 C   0  0  0  0  0  0  0  0  0  0  0  0
   -3.7221   -0.5960   -0.3942 C   0  0  0  0  0  0  0  0  0  0  0  0
   -4.7239    0.2714   -0.8208 C   0  0  0  0  0  0  0  0  0  0  0  0
   -4.4196    1.6301   -0.9919 C   0  0  0  0  0  0  0  0  0  0  0  0
   -5.4154    2.4791   -1.4137 O   0  0  0  0  0  0  0  0  0  0  0  0
   -6.0224   -0.0720   -1.1019 O   0  0  0  0  0  0  0  0  0  0  0  0
   -6.3722   -1.4426   -0.9396 C   0  0  0  0  0  0  0  0  0  0  0  0
   -1.3987   -1.0815    0.3115 C   0  0  0  0  0  0  0  0  0  0  0  0
   -1.6216   -2.2719    0.4668 O   0  0  0  0  0  0  0  0  0  0  0  0
   -0.2119   -0.4619    0.5190 O   0  0  0  0  0  0  0  0  0  0  0  0
    0.8428   -1.3313    0.9539 C   0  0  0  0  0  0  0  0  0  0  0  0
    2.0997   -0.4899    1.1421 C   0  0  0  0  0  0  0  0  0  0  0  0
    3.2784   -1.3404    1.6159 C   0  0  0  0  0  0  0  0  0  0  0  0
    4.5428   -0.5125    1.8399 C   0  0  0  0  0  0  0  0  0  0  0  0
    5.0046    0.0777    0.5881 N   0  0  0  0  0  0  0  0  0  0  0  0
    5.7654   -0.5824   -0.1962 C   0  0  0  0  0  0  0  0  0  0  0  0
    6.2632   -1.8336   -0.0924 N   0  0  0  0  0  0  0  0  0  0  0  0
    6.1749   -0.0237   -1.3554 N   0  0  0  0  0  0  0  0  0  0  0  0
   -1.3938    3.9051    0.3485 H   0  0  0  0  0  0  0  0  0  0  0  0
   -0.9297    3.5912   -1.3695 H   0  0  0  0  0  0  0  0  0  0  0  0
   -1.7255    5.1010   -0.9100 H   0  0  0  0  0  0  0  0  0  0  0  0
   -1.1375    1.6148   -0.1189 H   0  0  0  0  0  0  0  0  0  0  0  0
   -3.9143   -1.6551   -0.2492 H   0  0  0  0  0  0  0  0  0  0  0  0
   -6.2065    1.9181   -1.5192 H   0  0  0  0  0  0  0  0  0  0  0  0
   -6.2516   -1.7596    0.1015 H   0  0  0  0  0  0  0  0  0  0  0  0
   -7.4296   -1.5498   -1.2000 H   0  0  0  0  0  0  0  0  0  0  0  0
   -5.7956   -2.0796   -1.6183 H   0  0  0  0  0  0  0  0  0  0  0  0
    1.0155   -2.1037    0.1954 H   0  0  0  0  0  0  0  0  0  0  0  0
    0.5588   -1.8033    1.9017 H   0  0  0  0  0  0  0  0  0  0  0  0
    1.8956    0.3113    1.8634 H   0  0  0  0  0  0  0  0  0  0  0  0
    2.3383    0.0114    0.1961 H   0  0  0  0  0  0  0  0  0  0  0  0
    3.0116   -1.8310    2.5599 H   0  0  0  0  0  0  0  0  0  0  0  0
    3.4739   -2.1354    0.8865 H   0  0  0  0  0  0  0  0  0  0  0  0
    4.3306    0.3005    2.5441 H   0  0  0  0  0  0  0  0  0  0  0  0
    5.3182   -1.1211    2.3182 H   0  0  0  0  0  0  0  0  0  0  0  0
    7.2091   -1.8965   -0.4518 H   0  0  0  0  0  0  0  0  0  0  0  0
    6.2040   -2.2361    0.8331 H   0  0  0  0  0  0  0  0  0  0  0  0
    5.6735    0.8467   -1.5068 H   0  0  0  0  0  0  0  0  0  0  0  0
    6.0464   -0.6452   -2.1445 H   0  0  0  0  0  0  0  0  0  0  0  0
  1  2  1  0
  2  3  1  0
  3  4  2  0
  4  5  1  0
  5  6  2  0
  6  7  1  0
  7  8  2  0
  8  9  1  0
  7 10  1  0
 10 11  1  0
  5 12  1  0
 12 13  2  0
 12 14  1  0
 14 15  1  0
 15 16  1  0
 16 17  1  0
 17 18  1  0
 18 19  1  0
 19 20  2  3
 20 21  1  0
 20 22  1  0
  8  3  1  0
  1 23  1  0
  1 24  1  0
  1 25  1  0
  4 26  1  0
  6 27  1  0
  9 28  1  0
 11 29  1  0
 11 30  1  0
 11 31  1  0
 15 32  1  0
 15 33  1  0
 16 34  1  0
 16 35  1  0
 17 36  1  0
 17 37  1  0
 18 38  1  0
 18 39  1  0
 21 40  1  0
 21 41  1  0
 22 42  1  0
 22 43  1  0
M  END
$$$$
leonurine.sdf
     RDKit          3D

 43 43  0  0  0  0  0  0  0  0999 V2000
   -2.2974    3.5534   -2.1008 C   0  0  0  0  0  0  0  0  0  0  0  0
   -3.4215    2.9791   -1.4419 O   0  0  0  0  0  0  0  0  0  0  0  0
   -3.2801    1.6921   -0.9787 C   0  0  0  0  0  0  0  0  0  0  0  0
   -2.1347    0.9063   -1.1012 C   0  0  0  0  0  0  0  0  0  0  0  0
   -2.1250   -0.3956   -0.5818 C   0  0  0  0  0  0  0  0  0  0  0  0
   -3.2669   -0.8966    0.0585 C   0  0  0  0  0  0  0  0  0  0  0  0
   -4.4254   -0.1220    0.1902 C   0  0  0  0  0  0  0  0  0  0  0  0
   -4.4200    1.1732   -0.3336 C   0  0  0  0  0  0  0  0  0  0  0  0
   -5.5160    1.9947   -0.2449 O   0  0  0  0  0  0  0  0  0  0  0  0
   -5.4345   -0.7769    0.8405 O   0  0  0  0  0  0  0  0  0  0  0  0
   -6.6632   -0.0925    1.0369 C   0  0  0  0  0  0  0  0  0  0  0  0
   -0.9331   -1.2829   -0.6798 C   0  0  0  0  0  0  0  0  0  0  0  0
   -0.8867   -2.4060   -0.2048 O   0  0  0  0  0  0  0  0  0  0  0  0
    0.0633   -0.6635   -1.3605 O   0  0  0  0  0  0  0  0  0  0  0  0
    1.2768   -1.4177   -1.5145 C   0  0  0  0  0  0  0  0  0  0  0  0
    2.1821   -1.2008   -0.3067 C   0  0  0  0  0  0  0  0  0  0  0  0
    3.4948   -1.9717   -0.4486 C   0  0  0  0  0  0  0  0  0  0  0  0
    4.4156   -1.7775    0.7554 C   0  0  0  0  0  0  0  0  0  0  0  0
    4.8871   -0.3957    0.7745 N   0  0  0  0  0  0  0  0  0  0  0  0
    5.5990   -0.0147    1.7655 C   0  0  0  0  0  0  0  0  0  0  0  0
    6.0228   -0.7025    2.8483 N   0  0  0  0  0  0  0  0  0  0  0  0
    6.0344    1.2616    1.8305 N   0  0  0  0  0  0  0  0  0  0  0  0
   -1.4396    3.6277   -1.4244 H   0  0  0  0  0  0  0  0  0  0  0  0
   -2.0428    2.9930   -3.0064 H   0  0  0  0  0  0  0  0  0  0  0  0
   -2.5716    4.5686   -2.4036 H   0  0  0  0  0  0  0  0  0  0  0  0
   -1.2462    1.2870   -1.5925 H   0  0  0  0  0  0  0  0  0  0  0  0
   -3.2611   -1.9079    0.4644 H   0  0  0  0  0  0  0  0  0  0  0  0
   -5.2509    2.8278   -0.6818 H   0  0  0  0  0  0  0  0  0  0  0  0
   -6.5301    0.7906    1.6696 H   0  0  0  0  0  0  0  0  0  0  0  0
   -7.3365   -0.7720    1.5692 H   0  0  0  0  0  0  0  0  0  0  0  0
   -7.1398    0.1513    0.0823 H   0  0  0  0  0  0  0  0  0  0  0  0
    1.0617   -2.4803   -1.6789 H   0  0  0  0  0  0  0  0  0  0  0  0
    1.7661   -1.0471   -2.4219 H   0  0  0  0  0  0  0  0  0  0  0  0
    2.3722   -0.1267   -0.1923 H   0  0  0  0  0  0  0  0  0  0  0  0
    1.6624   -1.5117    0.6076 H   0  0  0  0  0  0  0  0  0  0  0  0
    4.0109   -1.6574   -1.3642 H   0  0  0  0  0  0  0  0  0  0  0  0
    3.2739   -3.0409   -0.5523 H   0  0  0  0  0  0  0  0  0  0  0  0
    5.2681   -2.4597    0.6552 H   0  0  0  0  0  0  0  0  0  0  0  0
    3.8758   -2.0270    1.6768 H   0  0  0  0  0  0  0  0  0  0  0  0
    6.9607   -0.4357    3.1249 H   0  0  0  0  0  0  0  0  0  0  0  0
    5.9484   -1.7075    2.7562 H   0  0  0  0  0  0  0  0  0  0  0  0
    5.8650    1.6744    2.7396 H   0  0  0  0  0  0  0  0  0  0  0  0
    5.5822    1.8098    1.1047 H   0  0  0  0  0  0  0  0  0  0  0  0
  1  2  1  0
  2  3  1  0
  3  4  2  0
  4  5  1  0
  5  6  2  0
  6  7  1  0
  7  8  2  0
  8  9  1  0
  7 10  1  0
 10 11  1  0
  5 12  1  0
 12 13  2  0
 12 14  1  0
 14 15  1  0
 15 16  1  0
 16 17  1  0
 17 18  1  0
 18 19  1  0
 19 20  2  3
 20 21  1  0
 20 22  1  0
  8  3  1  0
  1 23  1  0
  1 24  1  0
  1 25  1  0
  4 26  1  0
  6 27  1  0
  9 28  1  0
 11 29  1  0
 11 30  1  0
 11 31  1  0
 15 32  1  0
 15 33  1  0
 16 34  1  0
 16 35  1  0
 17 36  1  0
 17 37  1  0
 18 38  1  0
 18 39  1  0
 21 40  1  0
 21 41  1  0
 22 42  1  0
 22 43  1  0
M  END
$$$$
leonurine.sdf
     RDKit          3D

 43 43  0  0  0  0  0  0  0  0999 V2000
   -3.1141    4.2813   -2.5225 C   0  0  0  0  0  0  0  0  0  0  0  0
   -4.0796    3.2662   -2.2686 O   0  0  0  0  0  0  0  0  0  0  0  0
   -3.6608    2.1843   -1.5358 C   0  0  0  0  0  0  0  0  0  0  0  0
   -2.3801    1.9868   -1.0272 C   0  0  0  0  0  0  0  0  0  0  0  0
   -2.0875    0.8273   -0.2902 C   0  0  0  0  0  0  0  0  0  0  0  0
   -3.0841   -0.1374   -0.0633 C   0  0  0  0  0  0  0  0  0  0  0  0
   -4.3727    0.0484   -0.5682 C   0  0  0  0  0  0  0  0  0  0  0  0
   -4.6433    1.2114   -1.3005 C   0  0  0  0  0  0  0  0  0  0  0  0
   -5.9051    1.4145   -1.8072 O   0  0  0  0  0  0  0  0  0  0  0  0
   -5.4153   -0.8244   -0.4077 O   0  0  0  0  0  0  0  0  0  0  0  0
   -5.1767   -2.0084    0.3396 C   0  0  0  0  0  0  0  0  0  0  0  0
   -0.6997    0.6699    0.2271 C   0  0  0  0  0  0  0  0  0  0  0  0
    0.1880    1.4824    0.0205 O   0  0  0  0  0  0  0  0  0  0  0  0
   -0.5781   -0.4795    0.9357 O   0  0  0  0  0  0  0  0  0  0  0  0
    0.7213   -0.7324    1.4974 C   0  0  0  0  0  0  0  0  0  0  0  0
    1.6142   -1.4058    0.4588 C   0  0  0  0  0  0  0  0  0  0  0  0
    2.9769   -1.8267    1.0058 C   0  0  0  0  0  0  0  0  0  0  0  0
    3.8470   -0.6455    1.4332 C   0  0  0  0  0  0  0  0  0  0  0  0
    5.1517   -1.1322    1.8699 N   0  0  0  0  0  0  0  0  0  0  0  0
    6.1043   -1.2642    1.0301 C   0  0  0  0  0  0  0  0  0  0  0  0
    6.1441   -1.0358   -0.3006 N   0  0  0  0  0  0  0  0  0  0  0  0
    7.3035   -1.7231    1.4491 N   0  0  0  0  0  0  0  0  0  0  0  0
   -3.6020    5.0664   -3.1081 H   0  0  0  0  0  0  0  0  0  0  0  0
   -2.2802    3.8924   -3.1159 H   0  0  0  0  0  0  0  0  0  0  0  0
   -2.7613    4.7322   -1.5891 H   0  0  0  0  0  0  0  0  0  0  0  0
   -1.5898    2.7145   -1.1866 H   0  0  0  0  0  0  0  0  0  0  0  0
   -2.8381   -1.0265    0.5071 H   0  0  0  0  0  0  0  0  0  0  0  0
   -5.8635    2.2721   -2.2705 H   0  0  0  0  0  0  0  0  0  0  0  0
   -4.8957   -1.7743    1.3717 H   0  0  0  0  0  0  0  0  0  0  0  0
   -6.1102   -2.5787    0.3705 H   0  0  0  0  0  0  0  0  0  0  0  0
   -4.4203   -2.6349   -0.1444 H   0  0  0  0  0  0  0  0  0  0  0  0
    1.1554    0.1954    1.8858 H   0  0  0  0  0  0  0  0  0  0  0  0
    0.5710   -1.4000    2.3527 H   0  0  0  0  0  0  0  0  0  0  0  0
    1.0958   -2.2918    0.0706 H   0  0  0  0  0  0  0  0  0  0  0  0
    1.7490   -0.7450   -0.4060 H   0  0  0  0  0  0  0  0  0  0  0  0
    2.8420   -2.5114    1.8524 H   0  0  0  0  0  0  0  0  0  0  0  0
    3.4965   -2.4001    0.2282 H   0  0  0  0  0  0  0  0  0  0  0  0
    3.3889   -0.1330    2.2859 H   0  0  0  0  0  0  0  0  0  0  0  0
    3.9213    0.1044    0.6382 H   0  0  0  0  0  0  0  0  0  0  0  0
    5.3765   -0.4829   -0.6577 H   0  0  0  0  0  0  0  0  0  0  0  0
    7.0328   -0.6443   -0.5913 H   0  0  0  0  0  0  0  0  0  0  0  0
    7.2239   -2.0460    2.4090 H   0  0  0  0  0  0  0  0  0  0  0  0
    7.6542   -2.4655    0.8565 H   0  0  0  0  0  0  0  0  0  0  0  0
  1  2  1  0
  2  3  1  0
  3  4  2  0
  4  5  1  0
  5  6  2  0
  6  7  1  0
  7  8  2  0
  8  9  1  0
  7 10  1  0
 10 11  1  0
  5 12  1  0
 12 13  2  0
 12 14  1  0
 14 15  1  0
 15 16  1  0
 16 17  1  0
 17 18  1  0
 18 19  1  0
 19 20  2  3
 20 21  1  0
 20 22  1  0
  8  3  1  0
  1 23  1  0
  1 24  1  0
  1 25  1  0
  4 26  1  0
  6 27  1  0
  9 28  1  0
 11 29  1  0
 11 30  1  0
 11 31  1  0
 15 32  1  0
 15 33  1  0
 16 34  1  0
 16 35  1  0
 17 36  1  0
 17 37  1  0
 18 38  1  0
 18 39  1  0
 21 40  1  0
 21 41  1  0
 22 42  1  0
 22 43  1  0
M  END
$$$$
leonurine.sdf
     RDKit          3D

 43 43  0  0  0  0  0  0  0  0999 V2000
   -3.0357    4.5066   -2.2257 C   0  0  0  0  0  0  0  0  0  0  0  0
   -4.0394    3.6363   -1.7222 O   0  0  0  0  0  0  0  0  0  0  0  0
   -3.6436    2.4061   -1.2707 C   0  0  0  0  0  0  0  0  0  0  0  0
   -2.3278    1.9423   -1.2523 C   0  0  0  0  0  0  0  0  0  0  0  0
   -2.0307    0.6575   -0.7651 C   0  0  0  0  0  0  0  0  0  0  0  0
   -3.0583   -0.1741   -0.2910 C   0  0  0  0  0  0  0  0  0  0  0  0
   -4.3764    0.2771   -0.3037 C   0  0  0  0  0  0  0  0  0  0  0  0
   -4.6539    1.5626   -0.7932 C   0  0  0  0  0  0  0  0  0  0  0  0
   -5.9584    1.9968   -0.8002 O   0  0  0  0  0  0  0  0  0  0  0  0
   -5.4735   -0.4261    0.1274 O   0  0  0  0  0  0  0  0  0  0  0  0
   -5.2415   -1.7384    0.6274 C   0  0  0  0  0  0  0  0  0  0  0  0
   -0.6044    0.2278   -0.7729 C   0  0  0  0  0  0  0  0  0  0  0  0
    0.3086    0.9356   -1.1675 O   0  0  0  0  0  0  0  0  0  0  0  0
   -0.4807   -1.0308   -0.2830 O   0  0  0  0  0  0  0  0  0  0  0  0
    0.8566   -1.5591   -0.2520 C   0  0  0  0  0  0  0  0  0  0  0  0
    1.5654   -1.1053    1.0213 C   0  0  0  0  0  0  0  0  0  0  0  0
    2.9507   -1.7231    1.2025 C   0  0  0  0  0  0  0  0  0  0  0  0
    3.9477   -1.2970    0.1259 C   0  0  0  0  0  0  0  0  0  0  0  0
    5.2584   -1.8671    0.4210 N   0  0  0  0  0  0  0  0  0  0  0  0
    6.0908   -1.2266    1.1469 C   0  0  0  0  0  0  0  0  0  0  0  0
    7.2969   -1.7712    1.4168 N   0  0  0  0  0  0  0  0  0  0  0  0
    5.9853   -0.0279    1.7608 N   0  0  0  0  0  0  0  0  0  0  0  0
   -2.3111    4.7658   -1.4467 H   0  0  0  0  0  0  0  0  0  0  0  0
   -2.5393    4.0732   -3.1002 H   0  0  0  0  0  0  0  0  0  0  0  0
   -3.5248    5.4317   -2.5456 H   0  0  0  0  0  0  0  0  0  0  0  0
   -1.5102    2.5607   -1.6116 H   0  0  0  0  0  0  0  0  0  0  0  0
   -2.8121   -1.1622    0.0818 H   0  0  0  0  0  0  0  0  0  0  0  0
   -6.4797    1.2594   -0.4314 H   0  0  0  0  0  0  0  0  0  0  0  0
   -6.2077   -2.1583    0.9232 H   0  0  0  0  0  0  0  0  0  0  0  0
   -4.8195   -2.3867   -0.1476 H   0  0  0  0  0  0  0  0  0  0  0  0
   -4.6025   -1.7141    1.5162 H   0  0  0  0  0  0  0  0  0  0  0  0
    1.3998   -1.2736   -1.1594 H   0  0  0  0  0  0  0  0  0  0  0  0
    0.7649   -2.6505   -0.2619 H   0  0  0  0  0  0  0  0  0  0  0  0
    0.9411   -1.3683    1.8846 H   0  0  0  0  0  0  0  0  0  0  0  0
    1.6417   -0.0115    1.0393 H   0  0  0  0  0  0  0  0  0  0  0  0
    3.3308   -1.4295    2.1888 H   0  0  0  0  0  0  0  0  0  0  0  0
    2.8701   -2.8172    1.2188 H   0  0  0  0  0  0  0  0  0  0  0  0
    3.6350   -1.6874   -0.8486 H   0  0  0  0  0  0  0  0  0  0  0  0
    3.9763   -0.2075    0.0164 H   0  0  0  0  0  0  0  0  0  0  0  0
    7.5213   -1.7279    2.4032 H   0  0  0  0  0  0  0  0  0  0  0  0
    7.3118   -2.7341    1.0934 H   0  0  0  0  0  0  0  0  0  0  0  0
    5.2208    0.5482    1.4349 H   0  0  0  0  0  0  0  0  0  0  0  0
    6.8574    0.4882    1.7363 H   0  0  0  0  0  0  0  0  0  0  0  0
  1  2  1  0
  2  3  1  0
  3  4  2  0
  4  5  1  0
  5  6  2  0
  6  7  1  0
  7  8  2  0
  8  9  1  0
  7 10  1  0
 10 11  1  0
  5 12  1  0
 12 13  2  0
 12 14  1  0
 14 15  1  0
 15 16  1  0
 16 17  1  0
 17 18  1  0
 18 19  1  0
 19 20  2  3
 20 21  1  0
 20 22  1  0
  8  3  1  0
  1 23  1  0
  1 24  1  0
  1 25  1  0
  4 26  1  0
  6 27  1  0
  9 28  1  0
 11 29  1  0
 11 30  1  0
 11 31  1  0
 15 32  1  0
 15 33  1  0
 16 34  1  0
 16 35  1  0
 17 36  1  0
 17 37  1  0
 18 38  1  0
 18 39  1  0
 21 40  1  0
 21 41  1  0
 22 42  1  0
 22 43  1  0
M  END
$$$$
leonurine.sdf
     RDKit          3D

 43 43  0  0  0  0  0  0  0  0999 V2000
   -3.2046    4.4268   -2.2842 C   0  0  0  0  0  0  0  0  0  0  0  0
   -4.1710    3.5484   -1.7173 O   0  0  0  0  0  0  0  0  0  0  0  0
   -3.7178    2.3283   -1.2827 C   0  0  0  0  0  0  0  0  0  0  0  0
   -2.4033    1.8742   -1.3447 C   0  0  0  0  0  0  0  0  0  0  0  0
   -2.0774    0.5964   -0.8608 C   0  0  0  0  0  0  0  0  0  0  0  0
   -3.0748   -0.2282   -0.3122 C   0  0  0  0  0  0  0  0  0  0  0  0
   -4.3970    0.2154   -0.2438 C   0  0  0  0  0  0  0  0  0  0  0  0
   -4.7006    1.4926   -0.7323 C   0  0  0  0  0  0  0  0  0  0  0  0
   -5.9961    1.9494   -0.6750 O   0  0  0  0  0  0  0  0  0  0  0  0
   -5.4435   -0.5031    0.2691 O   0  0  0  0  0  0  0  0  0  0  0  0
   -5.1689   -1.8015    0.7748 C   0  0  0  0  0  0  0  0  0  0  0  0
   -0.6547    0.1653   -0.9528 C   0  0  0  0  0  0  0  0  0  0  0  0
    0.2307    0.8713   -1.4096 O   0  0  0  0  0  0  0  0  0  0  0  0
   -0.4999   -1.0892   -0.4626 O   0  0  0  0  0  0  0  0  0  0  0  0
    0.8356   -1.6170   -0.5089 C   0  0  0  0  0  0  0  0  0  0  0  0
    1.6135   -1.1790    0.7279 C   0  0  0  0  0  0  0  0  0  0  0  0
    3.0345   -1.7345    0.7188 C   0  0  0  0  0  0  0  0  0  0  0  0
    3.8126   -1.2931    1.9556 C   0  0  0  0  0  0  0  0  0  0  0  0
    5.1539   -1.8666    1.9173 N   0  0  0  0  0  0  0  0  0  0  0  0
    6.1149   -1.2043    1.3986 C   0  0  0  0  0  0  0  0  0  0  0  0
    6.1240    0.0100    0.8067 N   0  0  0  0  0  0  0  0  0  0  0  0
    7.3614   -1.7239    1.3966 N   0  0  0  0  0  0  0  0  0  0  0  0
   -3.7209    5.3458   -2.5778 H   0  0  0  0  0  0  0  0  0  0  0  0
   -2.4376    4.6954   -1.5503 H   0  0  0  0  0  0  0  0  0  0  0  0
   -2.7580    3.9930   -3.1850 H   0  0  0  0  0  0  0  0  0  0  0  0
   -1.6118    2.4891   -1.7629 H   0  0  0  0  0  0  0  0  0  0  0  0
   -2.8031   -1.2113    0.0568 H   0  0  0  0  0  0  0  0  0  0  0  0
   -5.9730    2.8441   -1.0632 H   0  0  0  0  0  0  0  0  0  0  0  0
   -4.4732   -1.7574    1.6193 H   0  0  0  0  0  0  0  0  0  0  0  0
   -4.7927   -2.4611   -0.0141 H   0  0  0  0  0  0  0  0  0  0  0  0
   -6.1095   -2.2242    1.1409 H   0  0  0  0  0  0  0  0  0  0  0  0
    0.7446   -2.7084   -0.5286 H   0  0  0  0  0  0  0  0  0  0  0  0
    1.3413   -1.3213   -1.4360 H   0  0  0  0  0  0  0  0  0  0  0  0
    1.6401   -0.0841    0.7824 H   0  0  0  0  0  0  0  0  0  0  0  0
    1.0795   -1.5107    1.6270 H   0  0  0  0  0  0  0  0  0  0  0  0
    3.0051   -2.8305    0.6760 H   0  0  0  0  0  0  0  0  0  0  0  0
    3.5547   -1.3995   -0.1870 H   0  0  0  0  0  0  0  0  0  0  0  0
    3.3118   -1.6662    2.8567 H   0  0  0  0  0  0  0  0  0  0  0  0
    3.8251   -0.2010    2.0498 H   0  0  0  0  0  0  0  0  0  0  0  0
    5.2098    0.3425    0.5275 H   0  0  0  0  0  0  0  0  0  0  0  0
    6.7683    0.0452    0.0250 H   0  0  0  0  0  0  0  0  0  0  0  0
    8.0502   -1.0580    1.7247 H   0  0  0  0  0  0  0  0  0  0  0  0
    7.3779   -2.5591    1.9750 H   0  0  0  0  0  0  0  0  0  0  0  0
  1  2  1  0
  2  3  1  0
  3  4  2  0
  4  5  1  0
  5  6  2  0
  6  7  1  0
  7  8  2  0
  8  9  1  0
  7 10  1  0
 10 11  1  0
  5 12  1  0
 12 13  2  0
 12 14  1  0
 14 15  1  0
 15 16  1  0
 16 17  1  0
 17 18  1  0
 18 19  1  0
 19 20  2  3
 20 21  1  0
 20 22  1  0
  8  3  1  0
  1 23  1  0
  1 24  1  0
  1 25  1  0
  4 26  1  0
  6 27  1  0
  9 28  1  0
 11 29  1  0
 11 30  1  0
 11 31  1  0
 15 32  1  0
 15 33  1  0
 16 34  1  0
 16 35  1  0
 17 36  1  0
 17 37  1  0
 18 38  1  0
 18 39  1  0
 21 40  1  0
 21 41  1  0
 22 42  1  0
 22 43  1  0
M  END
$$$$
leonurine.sdf
     RDKit          3D

 43 43  0  0  0  0  0  0  0  0999 V2000
   -4.2348    3.8184   -2.8127 C   0  0  0  0  0  0  0  0  0  0  0  0
   -4.8296    2.7614   -2.0669 O   0  0  0  0  0  0  0  0  0  0  0  0
   -3.9770    1.9376   -1.3759 C   0  0  0  0  0  0  0  0  0  0  0  0
   -2.5899    2.0473   -1.3316 C   0  0  0  0  0  0  0  0  0  0  0  0
   -1.8359    1.1312   -0.5797 C   0  0  0  0  0  0  0  0  0  0  0  0
   -2.4768    0.1001    0.1285 C   0  0  0  0  0  0  0  0  0  0  0  0
   -3.8673   -0.0214    0.0923 C   0  0  0  0  0  0  0  0  0  0  0  0
   -4.6005    0.9038   -0.6617 C   0  0  0  0  0  0  0  0  0  0  0  0
   -5.9709    0.8038   -0.7108 O   0  0  0  0  0  0  0  0  0  0  0  0
   -4.5913   -0.9842    0.7433 O   0  0  0  0  0  0  0  0  0  0  0  0
   -3.8750   -1.9510    1.4977 C   0  0  0  0  0  0  0  0  0  0  0  0
   -0.3559    1.2988   -0.5694 C   0  0  0  0  0  0  0  0  0  0  0  0
    0.2221    2.1719   -1.1973 O   0  0  0  0  0  0  0  0  0  0  0  0
    0.2263    0.3629    0.2188 O   0  0  0  0  0  0  0  0  0  0  0  0
    1.6611    0.4170    0.3034 C   0  0  0  0  0  0  0  0  0  0  0  0
    2.2765   -0.4153   -0.8163 C   0  0  0  0  0  0  0  0  0  0  0  0
    3.8026   -0.3191   -0.8897 C   0  0  0  0  0  0  0  0  0  0  0  0
    4.5372   -0.6858    0.4001 C   0  0  0  0  0  0  0  0  0  0  0  0
    4.1713   -2.0421    0.7911 N   0  0  0  0  0  0  0  0  0  0  0  0
    4.6387   -2.5049    1.8869 C   0  0  0  0  0  0  0  0  0  0  0  0
    5.4636   -1.9325    2.7908 N   0  0  0  0  0  0  0  0  0  0  0  0
    4.3035   -3.7488    2.2900 N   0  0  0  0  0  0  0  0  0  0  0  0
   -5.0397    4.3740   -3.3035 H   0  0  0  0  0  0  0  0  0  0  0  0
   -3.7028    4.5138   -2.1552 H   0  0  0  0  0  0  0  0  0  0  0  0
   -3.5753    3.4271   -3.5943 H   0  0  0  0  0  0  0  0  0  0  0  0
   -2.0669    2.8326   -1.8694 H   0  0  0  0  0  0  0  0  0  0  0  0
   -1.8763   -0.5981    0.7016 H   0  0  0  0  0  0  0  0  0  0  0  0
   -6.2632    1.5366   -1.2846 H   0  0  0  0  0  0  0  0  0  0  0  0
   -4.6030   -2.6408    1.9354 H   0  0  0  0  0  0  0  0  0  0  0  0
   -3.2062   -2.5358    0.8575 H   0  0  0  0  0  0  0  0  0  0  0  0
   -3.3255   -1.4816    2.3203 H   0  0  0  0  0  0  0  0  0  0  0  0
    1.9275    0.0033    1.2812 H   0  0  0  0  0  0  0  0  0  0  0  0
    2.0175    1.4537    0.2839 H   0  0  0  0  0  0  0  0  0  0  0  0
    1.8598   -0.1000   -1.7809 H   0  0  0  0  0  0  0  0  0  0  0  0
    1.9653   -1.4608   -0.6990 H   0  0  0  0  0  0  0  0  0  0  0  0
    4.0839    0.7022   -1.1741 H   0  0  0  0  0  0  0  0  0  0  0  0
    4.1480   -0.9757   -1.6983 H   0  0  0  0  0  0  0  0  0  0  0  0
    4.2904    0.0341    1.1888 H   0  0  0  0  0  0  0  0  0  0  0  0
    5.6160   -0.6249    0.2121 H   0  0  0  0  0  0  0  0  0  0  0  0
    6.1135   -2.6024    3.1868 H   0  0  0  0  0  0  0  0  0  0  0  0
    5.9574   -1.1201    2.4441 H   0  0  0  0  0  0  0  0  0  0  0  0
    4.0137   -3.7726    3.2599 H   0  0  0  0  0  0  0  0  0  0  0  0
    3.5681   -4.1136    1.6916 H   0  0  0  0  0  0  0  0  0  0  0  0
  1  2  1  0
  2  3  1  0
  3  4  2  0
  4  5  1  0
  5  6  2  0
  6  7  1  0
  7  8  2  0
  8  9  1  0
  7 10  1  0
 10 11  1  0
  5 12  1  0
 12 13  2  0
 12 14  1  0
 14 15  1  0
 15 16  1  0
 16 17  1  0
 17 18  1  0
 18 19  1  0
 19 20  2  3
 20 21  1  0
 20 22  1  0
  8  3  1  0
  1 23  1  0
  1 24  1  0
  1 25  1  0
  4 26  1  0
  6 27  1  0
  9 28  1  0
 11 29  1  0
 11 30  1  0
 11 31  1  0
 15 32  1  0
 15 33  1  0
 16 34  1  0
 16 35  1  0
 17 36  1  0
 17 37  1  0
 18 38  1  0
 18 39  1  0
 21 40  1  0
 21 41  1  0
 22 42  1  0
 22 43  1  0
M  END
$$$$
leonurine.sdf
     RDKit          3D

 43 43  0  0  0  0  0  0  0  0999 V2000
   -3.0505    3.3129   -3.1899 C   0  0  0  0  0  0  0  0  0  0  0  0
   -4.0901    2.5561   -2.5793 O   0  0  0  0  0  0  0  0  0  0  0  0
   -3.7319    1.7348   -1.5396 C   0  0  0  0  0  0  0  0  0  0  0  0
   -2.4458    1.5757   -1.0278 C   0  0  0  0  0  0  0  0  0  0  0  0
   -2.2243    0.6959    0.0442 C   0  0  0  0  0  0  0  0  0  0  0  0
   -3.2953   -0.0243    0.6015 C   0  0  0  0  0  0  0  0  0  0  0  0
   -4.5880    0.1259    0.0986 C   0  0  0  0  0  0  0  0  0  0  0  0
   -4.7885    1.0078   -0.9702 C   0  0  0  0  0  0  0  0  0  0  0  0
   -6.0531    1.1732   -1.4838 O   0  0  0  0  0  0  0  0  0  0  0  0
   -5.6968   -0.5256    0.5673 O   0  0  0  0  0  0  0  0  0  0  0  0
   -5.5218   -1.4250    1.6530 C   0  0  0  0  0  0  0  0  0  0  0  0
   -0.8707    0.4861    0.6297 C   0  0  0  0  0  0  0  0  0  0  0  0
   -0.6485   -0.2848    1.5498 O   0  0  0  0  0  0  0  0  0  0  0  0
    0.0489    1.2570   -0.0022 O   0  0  0  0  0  0  0  0  0  0  0  0
    1.3960    1.1452    0.4849 C   0  0  0  0  0  0  0  0  0  0  0  0
    2.1015   -0.0247   -0.1935 C   0  0  0  0  0  0  0  0  0  0  0  0
    3.5416   -0.1642    0.2907 C   0  0  0  0  0  0  0  0  0  0  0  0
    4.2454   -1.3371   -0.3869 C   0  0  0  0  0  0  0  0  0  0  0  0
    5.6237   -1.4164    0.0858 N   0  0  0  0  0  0  0  0  0  0  0  0
    5.9123   -2.1596    1.0836 C   0  0  0  0  0  0  0  0  0  0  0  0
    5.1201   -2.9260    1.8646 N   0  0  0  0  0  0  0  0  0  0  0  0
    7.1945   -2.2577    1.4962 N   0  0  0  0  0  0  0  0  0  0  0  0
   -2.2986    2.6572   -3.6411 H   0  0  0  0  0  0  0  0  0  0  0  0
   -2.5953    4.0058   -2.4747 H   0  0  0  0  0  0  0  0  0  0  0  0
   -3.4980    3.9080   -3.9917 H   0  0  0  0  0  0  0  0  0  0  0  0
   -1.6088    2.1232   -1.4468 H   0  0  0  0  0  0  0  0  0  0  0  0
   -3.0905   -0.6970    1.4296 H   0  0  0  0  0  0  0  0  0  0  0  0
   -5.9574    1.8209   -2.2069 H   0  0  0  0  0  0  0  0  0  0  0  0
   -6.5001   -1.8508    1.8959 H   0  0  0  0  0  0  0  0  0  0  0  0
   -4.8584   -2.2515    1.3781 H   0  0  0  0  0  0  0  0  0  0  0  0
   -5.1561   -0.9028    2.5434 H   0  0  0  0  0  0  0  0  0  0  0  0
    1.9019    2.0845    0.2361 H   0  0  0  0  0  0  0  0  0  0  0  0
    1.4107    1.0539    1.5777 H   0  0  0  0  0  0  0  0  0  0  0  0
    2.0765    0.1195   -1.2808 H   0  0  0  0  0  0  0  0  0  0  0  0
    1.5506   -0.9533   -0.0020 H   0  0  0  0  0  0  0  0  0  0  0  0
    4.0938    0.7618    0.0873 H   0  0  0  0  0  0  0  0  0  0  0  0
    3.5521   -0.3027    1.3788 H   0  0  0  0  0  0  0  0  0  0  0  0
    3.6949   -2.2731   -0.2366 H   0  0  0  0  0  0  0  0  0  0  0  0
    4.2694   -1.1740   -1.4708 H   0  0  0  0  0  0  0  0  0  0  0  0
    4.1345   -2.7055    1.8000 H   0  0  0  0  0  0  0  0  0  0  0  0
    5.4223   -2.9203    2.8321 H   0  0  0  0  0  0  0  0  0  0  0  0
    7.8015   -1.8083    0.8167 H   0  0  0  0  0  0  0  0  0  0  0  0
    7.4761   -3.2208    1.6334 H   0  0  0  0  0  0  0  0  0  0  0  0
  1  2  1  0
  2  3  1  0
  3  4  2  0
  4  5  1  0
  5  6  2  0
  6  7  1  0
  7  8  2  0
  8  9  1  0
  7 10  1  0
 10 11  1  0
  5 12  1  0
 12 13  2  0
 12 14  1  0
 14 15  1  0
 15 16  1  0
 16 17  1  0
 17 18  1  0
 18 19  1  0
 19 20  2  3
 20 21  1  0
 20 22  1  0
  8  3  1  0
  1 23  1  0
  1 24  1  0
  1 25  1  0
  4 26  1  0
  6 27  1  0
  9 28  1  0
 11 29  1  0
 11 30  1  0
 11 31  1  0
 15 32  1  0
 15 33  1  0
 16 34  1  0
 16 35  1  0
 17 36  1  0
 17 37  1  0
 18 38  1  0
 18 39  1  0
 21 40  1  0
 21 41  1  0
 22 42  1  0
 22 43  1  0
M  END
$$$$
leonurine.sdf
     RDKit          3D

 43 43  0  0  0  0  0  0  0  0999 V2000
   -2.7148    4.0423   -2.3711 C   0  0  0  0  0  0  0  0  0  0  0  0
   -3.8096    3.4649   -1.6744 O   0  0  0  0  0  0  0  0  0  0  0  0
   -3.6377    2.2155   -1.1415 C   0  0  0  0  0  0  0  0  0  0  0  0
   -2.4613    1.4667   -1.2121 C   0  0  0  0  0  0  0  0  0  0  0  0
   -2.3964    0.1906   -0.6265 C   0  0  0  0  0  0  0  0  0  0  0  0
   -3.5157   -0.3419    0.0345 C   0  0  0  0  0  0  0  0  0  0  0  0
   -4.6946    0.3943    0.1121 C   0  0  0  0  0  0  0  0  0  0  0  0
   -4.7418    1.6663   -0.4770 C   0  0  0  0  0  0  0  0  0  0  0  0
   -5.9100    2.3866   -0.3947 O   0  0  0  0  0  0  0  0  0  0  0  0
   -5.8558   -0.0046    0.7250 O   0  0  0  0  0  0  0  0  0  0  0  0
   -5.8514   -1.2940    1.3290 C   0  0  0  0  0  0  0  0  0  0  0  0
   -1.1625   -0.6423   -0.6749 C   0  0  0  0  0  0  0  0  0  0  0  0
   -1.0836   -1.7498   -0.1676 O   0  0  0  0  0  0  0  0  0  0  0  0
   -0.1741    0.0024   -1.3415 O   0  0  0  0  0  0  0  0  0  0  0  0
    1.0700   -0.7075   -1.4590 C   0  0  0  0  0  0  0  0  0  0  0  0
    1.9342   -0.4511   -0.2287 C   0  0  0  0  0  0  0  0  0  0  0  0
    3.2993   -1.1210   -0.3559 C   0  0  0  0  0  0  0  0  0  0  0  0
    4.1598   -0.8765    0.8823 C   0  0  0  0  0  0  0  0  0  0  0  0
    5.4538   -1.5162    0.6678 N   0  0  0  0  0  0  0  0  0  0  0  0
    6.2959   -1.5165    1.6293 C   0  0  0  0  0  0  0  0  0  0  0  0
    6.1997   -0.9922    2.8706 N   0  0  0  0  0  0  0  0  0  0  0  0
    7.4942   -2.1190    1.4744 N   0  0  0  0  0  0  0  0  0  0  0  0
   -2.4391    3.4398   -3.2428 H   0  0  0  0  0  0  0  0  0  0  0  0
   -1.8581    4.1912   -1.7057 H   0  0  0  0  0  0  0  0  0  0  0  0
   -3.0294    5.0259   -2.7329 H   0  0  0  0  0  0  0  0  0  0  0  0
   -1.5862    1.8604   -1.7176 H   0  0  0  0  0  0  0  0  0  0  0  0
   -3.4359   -1.3305    0.4773 H   0  0  0  0  0  0  0  0  0  0  0  0
   -6.5300    1.8187    0.1002 H   0  0  0  0  0  0  0  0  0  0  0  0
   -6.8408   -1.4608    1.7656 H   0  0  0  0  0  0  0  0  0  0  0  0
   -5.6794   -2.0778    0.5841 H   0  0  0  0  0  0  0  0  0  0  0  0
   -5.1165   -1.3472    2.1389 H   0  0  0  0  0  0  0  0  0  0  0  0
    0.8984   -1.7784   -1.6218 H   0  0  0  0  0  0  0  0  0  0  0  0
    1.5681   -0.3231   -2.3557 H   0  0  0  0  0  0  0  0  0  0  0  0
    1.4187   -0.8142    0.6685 H   0  0  0  0  0  0  0  0  0  0  0  0
    2.0533    0.6305   -0.0889 H   0  0  0  0  0  0  0  0  0  0  0  0
    3.1718   -2.2006   -0.5057 H   0  0  0  0  0  0  0  0  0  0  0  0
    3.8177   -0.7397   -1.2447 H   0  0  0  0  0  0  0  0  0  0  0  0
    4.2901    0.2021    1.0304 H   0  0  0  0  0  0  0  0  0  0  0  0
    3.6583   -1.2961    1.7627 H   0  0  0  0  0  0  0  0  0  0  0  0
    7.0799   -0.6013    3.1866 H   0  0  0  0  0  0  0  0  0  0  0  0
    5.4493   -0.3225    2.9804 H   0  0  0  0  0  0  0  0  0  0  0  0
    7.4969   -2.6437    0.6043 H   0  0  0  0  0  0  0  0  0  0  0  0
    7.7152   -2.7296    2.2515 H   0  0  0  0  0  0  0  0  0  0  0  0
  1  2  1  0
  2  3  1  0
  3  4  2  0
  4  5  1  0
  5  6  2  0
  6  7  1  0
  7  8  2  0
  8  9  1  0
  7 10  1  0
 10 11  1  0
  5 12  1  0
 12 13  2  0
 12 14  1  0
 14 15  1  0
 15 16  1  0
 16 17  1  0
 17 18  1  0
 18 19  1  0
 19 20  2  3
 20 21  1  0
 20 22  1  0
  8  3  1  0
  1 23  1  0
  1 24  1  0
  1 25  1  0
  4 26  1  0
  6 27  1  0
  9 28  1  0
 11 29  1  0
 11 30  1  0
 11 31  1  0
 15 32  1  0
 15 33  1  0
 16 34  1  0
 16 35  1  0
 17 36  1  0
 17 37  1  0
 18 38  1  0
 18 39  1  0
 21 40  1  0
 21 41  1  0
 22 42  1  0
 22 43  1  0
M  END
$$$$
leonurine.sdf
     RDKit          3D

 43 43  0  0  0  0  0  0  0  0999 V2000
   -1.1924    3.8207   -1.0452 C   0  0  0  0  0  0  0  0  0  0  0  0
   -2.4436    3.4113   -0.5032 O   0  0  0  0  0  0  0  0  0  0  0  0
   -2.6632    2.0600   -0.4039 C   0  0  0  0  0  0  0  0  0  0  0  0
   -1.7862    1.0569   -0.8100 C   0  0  0  0  0  0  0  0  0  0  0  0
   -2.1433   -0.2914   -0.6464 C   0  0  0  0  0  0  0  0  0  0  0  0
   -3.3785   -0.6324   -0.0691 C   0  0  0  0  0  0  0  0  0  0  0  0
   -4.2670    0.3626    0.3401 C   0  0  0  0  0  0  0  0  0  0  0  0
   -3.8952    1.7012    0.1643 C   0  0  0  0  0  0  0  0  0  0  0  0
   -4.7533    2.7003    0.5592 O   0  0  0  0  0  0  0  0  0  0  0  0
   -5.4923    0.1399    0.9083 O   0  0  0  0  0  0  0  0  0  0  0  0
   -5.8860   -1.2095    1.1141 C   0  0  0  0  0  0  0  0  0  0  0  0
   -1.2400   -1.4016   -1.0565 C   0  0  0  0  0  0  0  0  0  0  0  0
   -1.4478   -2.5734   -0.7861 O   0  0  0  0  0  0  0  0  0  0  0  0
   -0.1867   -0.9190   -1.7597 O   0  0  0  0  0  0  0  0  0  0  0  0
    0.7834   -1.8887   -2.1835 C   0  0  0  0  0  0  0  0  0  0  0  0
    1.8101   -2.1488   -1.0834 C   0  0  0  0  0  0  0  0  0  0  0  0
    2.5644   -0.8771   -0.6886 C   0  0  0  0  0  0  0  0  0  0  0  0
    3.6001   -1.1577    0.3988 C   0  0  0  0  0  0  0  0  0  0  0  0
    4.2858    0.0940    0.7058 N   0  0  0  0  0  0  0  0  0  0  0  0
    5.1368    0.0976    1.6597 C   0  0  0  0  0  0  0  0  0  0  0  0
    5.7759    1.2407    1.9879 N   0  0  0  0  0  0  0  0  0  0  0  0
    5.5413   -0.9057    2.4690 N   0  0  0  0  0  0  0  0  0  0  0  0
   -0.3602    3.4695   -0.4261 H   0  0  0  0  0  0  0  0  0  0  0  0
   -1.1703    4.9147   -1.0435 H   0  0  0  0  0  0  0  0  0  0  0  0
   -1.0845    3.4868   -2.0824 H   0  0  0  0  0  0  0  0  0  0  0  0
   -0.8245    1.3011   -1.2481 H   0  0  0  0  0  0  0  0  0  0  0  0
   -3.6211   -1.6848    0.0473 H   0  0  0  0  0  0  0  0  0  0  0  0
   -4.2944    3.5345    0.3470 H   0  0  0  0  0  0  0  0  0  0  0  0
   -6.8766   -1.2019    1.5791 H   0  0  0  0  0  0  0  0  0  0  0  0
   -5.2014   -1.7210    1.7987 H   0  0  0  0  0  0  0  0  0  0  0  0
   -5.9694   -1.7457    0.1631 H   0  0  0  0  0  0  0  0  0  0  0  0
    0.2957   -2.8204   -2.4939 H   0  0  0  0  0  0  0  0  0  0  0  0
    1.2784   -1.4804   -3.0714 H   0  0  0  0  0  0  0  0  0  0  0  0
    2.5202   -2.9083   -1.4305 H   0  0  0  0  0  0  0  0  0  0  0  0
    1.3060   -2.5508   -0.1967 H   0  0  0  0  0  0  0  0  0  0  0  0
    1.8611   -0.1155   -0.3294 H   0  0  0  0  0  0  0  0  0  0  0  0
    3.0624   -0.4539   -1.5700 H   0  0  0  0  0  0  0  0  0  0  0  0
    3.0956   -1.5532    1.2887 H   0  0  0  0  0  0  0  0  0  0  0  0
    4.3168   -1.9046    0.0372 H   0  0  0  0  0  0  0  0  0  0  0  0
    5.3543    2.0189    1.4895 H   0  0  0  0  0  0  0  0  0  0  0  0
    5.7591    1.4125    2.9859 H   0  0  0  0  0  0  0  0  0  0  0  0
    6.5306   -0.8469    2.6821 H   0  0  0  0  0  0  0  0  0  0  0  0
    5.3002   -1.8304    2.1366 H   0  0  0  0  0  0  0  0  0  0  0  0
  1  2  1  0
  2  3  1  0
  3  4  2  0
  4  5  1  0
  5  6  2  0
  6  7  1  0
  7  8  2  0
  8  9  1  0
  7 10  1  0
 10 11  1  0
  5 12  1  0
 12 13  2  0
 12 14  1  0
 14 15  1  0
 15 16  1  0
 16 17  1  0
 17 18  1  0
 18 19  1  0
 19 20  2  3
 20 21  1  0
 20 22  1  0
  8  3  1  0
  1 23  1  0
  1 24  1  0
  1 25  1  0
  4 26  1  0
  6 27  1  0
  9 28  1  0
 11 29  1  0
 11 30  1  0
 11 31  1  0
 15 32  1  0
 15 33  1  0
 16 34  1  0
 16 35  1  0
 17 36  1  0
 17 37  1  0
 18 38  1  0
 18 39  1  0
 21 40  1  0
 21 41  1  0
 22 42  1  0
 22 43  1  0
M  END
$$$$
leonurine.sdf
     RDKit          3D

 43 43  0  0  0  0  0  0  0  0999 V2000
   -3.6712    4.7265   -0.9264 C   0  0  0  0  0  0  0  0  0  0  0  0
   -3.8983    3.4611   -1.5308 O   0  0  0  0  0  0  0  0  0  0  0  0
   -3.1550    2.4024   -1.0828 C   0  0  0  0  0  0  0  0  0  0  0  0
   -2.1967    2.4651   -0.0705 C   0  0  0  0  0  0  0  0  0  0  0  0
   -1.4919    1.3121    0.3143 C   0  0  0  0  0  0  0  0  0  0  0  0
   -1.7381    0.0848   -0.3226 C   0  0  0  0  0  0  0  0  0  0  0  0
   -2.6903    0.0091   -1.3361 C   0  0  0  0  0  0  0  0  0  0  0  0
   -3.3901    1.1688   -1.7030 C   0  0  0  0  0  0  0  0  0  0  0  0
   -4.3292    1.0813   -2.7034 O   0  0  0  0  0  0  0  0  0  0  0  0
   -3.0285   -1.1194   -2.0405 O   0  0  0  0  0  0  0  0  0  0  0  0
   -2.3201   -2.3125   -1.7202 C   0  0  0  0  0  0  0  0  0  0  0  0
   -0.4775    1.4467    1.3952 C   0  0  0  0  0  0  0  0  0  0  0  0
   -0.1057    2.5177    1.8469 O   0  0  0  0  0  0  0  0  0  0  0  0
   -0.0474    0.2249    1.7918 O   0  0  0  0  0  0  0  0  0  0  0  0
    0.9770    0.2475    2.7916 C   0  0  0  0  0  0  0  0  0  0  0  0
    1.4142   -1.1845    3.0911 C   0  0  0  0  0  0  0  0  0  0  0  0
    1.7954   -2.0083    1.8566 C   0  0  0  0  0  0  0  0  0  0  0  0
    2.9275   -1.3941    1.0343 C   0  0  0  0  0  0  0  0  0  0  0  0
    3.2603   -2.3246   -0.0411 N   0  0  0  0  0  0  0  0  0  0  0  0
    4.1325   -1.9641   -0.9035 C   0  0  0  0  0  0  0  0  0  0  0  0
    4.4534   -2.7893   -1.9226 N   0  0  0  0  0  0  0  0  0  0  0  0
    4.8422   -0.8185   -0.9969 N   0  0  0  0  0  0  0  0  0  0  0  0
   -4.3395    5.4499   -1.4034 H   0  0  0  0  0  0  0  0  0  0  0  0
   -3.9139    4.7034    0.1411 H   0  0  0  0  0  0  0  0  0  0  0  0
   -2.6429    5.0645   -1.0917 H   0  0  0  0  0  0  0  0  0  0  0  0
   -1.9771    3.3989    0.4390 H   0  0  0  0  0  0  0  0  0  0  0  0
   -1.1761   -0.7922   -0.0198 H   0  0  0  0  0  0  0  0  0  0  0  0
   -4.3233    0.1467   -2.9831 H   0  0  0  0  0  0  0  0  0  0  0  0
   -1.2485   -2.1996   -1.9151 H   0  0  0  0  0  0  0  0  0  0  0  0
   -2.5060   -2.6147   -0.6844 H   0  0  0  0  0  0  0  0  0  0  0  0
   -2.6951   -3.1077   -2.3716 H   0  0  0  0  0  0  0  0  0  0  0  0
    1.8293    0.8396    2.4389 H   0  0  0  0  0  0  0  0  0  0  0  0
    0.5837    0.7057    3.7066 H   0  0  0  0  0  0  0  0  0  0  0  0
    2.2509   -1.1652    3.7990 H   0  0  0  0  0  0  0  0  0  0  0  0
    0.5862   -1.7048    3.5889 H   0  0  0  0  0  0  0  0  0  0  0  0
    0.9155   -2.1528    1.2170 H   0  0  0  0  0  0  0  0  0  0  0  0
    2.0923   -3.0113    2.1894 H   0  0  0  0  0  0  0  0  0  0  0  0
    3.7992   -1.2299    1.6786 H   0  0  0  0  0  0  0  0  0  0  0  0
    2.6065   -0.4331    0.6172 H   0  0  0  0  0  0  0  0  0  0  0  0
    3.8101   -3.5751   -1.9398 H   0  0  0  0  0  0  0  0  0  0  0  0
    4.4516   -2.3121   -2.8159 H   0  0  0  0  0  0  0  0  0  0  0  0
    4.8472   -0.2608   -0.1528 H   0  0  0  0  0  0  0  0  0  0  0  0
    5.7874   -0.9819   -1.3248 H   0  0  0  0  0  0  0  0  0  0  0  0
  1  2  1  0
  2  3  1  0
  3  4  2  0
  4  5  1  0
  5  6  2  0
  6  7  1  0
  7  8  2  0
  8  9  1  0
  7 10  1  0
 10 11  1  0
  5 12  1  0
 12 13  2  0
 12 14  1  0
 14 15  1  0
 15 16  1  0
 16 17  1  0
 17 18  1  0
 18 19  1  0
 19 20  2  3
 20 21  1  0
 20 22  1  0
  8  3  1  0
  1 23  1  0
  1 24  1  0
  1 25  1  0
  4 26  1  0
  6 27  1  0
  9 28  1  0
 11 29  1  0
 11 30  1  0
 11 31  1  0
 15 32  1  0
 15 33  1  0
 16 34  1  0
 16 35  1  0
 17 36  1  0
 17 37  1  0
 18 38  1  0
 18 39  1  0
 21 40  1  0
 21 41  1  0
 22 42  1  0
 22 43  1  0
M  END
$$$$
leonurine.sdf
     RDKit          3D

 43 43  0  0  0  0  0  0  0  0999 V2000
   -3.0119    4.8214   -0.8096 C   0  0  0  0  0  0  0  0  0  0  0  0
   -3.9004    3.7529   -1.1047 O   0  0  0  0  0  0  0  0  0  0  0  0
   -3.4214    2.4770   -0.9761 C   0  0  0  0  0  0  0  0  0  0  0  0
   -2.1286    2.1411   -0.5725 C   0  0  0  0  0  0  0  0  0  0  0  0
   -1.7389    0.7939   -0.4731 C   0  0  0  0  0  0  0  0  0  0  0  0
   -2.6501   -0.2297   -0.7804 C   0  0  0  0  0  0  0  0  0  0  0  0
   -3.9440    0.0920   -1.1846 C   0  0  0  0  0  0  0  0  0  0  0  0
   -4.3150    1.4422   -1.2776 C   0  0  0  0  0  0  0  0  0  0  0  0
   -5.5947    1.7468   -1.6773 O   0  0  0  0  0  0  0  0  0  0  0  0
   -4.9317   -0.8026   -1.5136 O   0  0  0  0  0  0  0  0  0  0  0  0
   -4.5995   -2.1846   -1.4363 C   0  0  0  0  0  0  0  0  0  0  0  0
   -0.3438    0.5076   -0.0350 C   0  0  0  0  0  0  0  0  0  0  0  0
    0.4645    1.3809    0.2375 O   0  0  0  0  0  0  0  0  0  0  0  0
   -0.1276   -0.8296    0.0174 O   0  0  0  0  0  0  0  0  0  0  0  0
    1.1953   -1.2393    0.4151 C   0  0  0  0  0  0  0  0  0  0  0  0
    1.2908   -1.2635    1.9378 C   0  0  0  0  0  0  0  0  0  0  0  0
    2.5634   -1.9152    2.4848 C   0  0  0  0  0  0  0  0  0  0  0  0
    3.8574   -1.2371    2.0343 C   0  0  0  0  0  0  0  0  0  0  0  0
    4.1873   -1.6936    0.6873 N   0  0  0  0  0  0  0  0  0  0  0  0
    5.2089   -1.1875    0.1089 C   0  0  0  0  0  0  0  0  0  0  0  0
    6.0805   -0.2504    0.5415 N   0  0  0  0  0  0  0  0  0  0  0  0
    5.5552   -1.6024   -1.1283 N   0  0  0  0  0  0  0  0  0  0  0  0
   -2.6931    4.7921    0.2375 H   0  0  0  0  0  0  0  0  0  0  0  0
   -2.1510    4.8177   -1.4862 H   0  0  0  0  0  0  0  0  0  0  0  0
   -3.5532    5.7595   -0.9659 H   0  0  0  0  0  0  0  0  0  0  0  0
   -1.4000    2.9086   -0.3278 H   0  0  0  0  0  0  0  0  0  0  0  0
   -2.3330   -1.2635   -0.6988 H   0  0  0  0  0  0  0  0  0  0  0  0
   -6.0297    0.8874   -1.8310 H   0  0  0  0  0  0  0  0  0  0  0  0
   -4.3401   -2.4709   -0.4118 H   0  0  0  0  0  0  0  0  0  0  0  0
   -3.7947   -2.4363   -2.1349 H   0  0  0  0  0  0  0  0  0  0  0  0
   -5.4850   -2.7573   -1.7281 H   0  0  0  0  0  0  0  0  0  0  0  0
    1.9431   -0.5823   -0.0415 H   0  0  0  0  0  0  0  0  0  0  0  0
    1.3458   -2.2451    0.0091 H   0  0  0  0  0  0  0  0  0  0  0  0
    1.2084   -0.2409    2.3259 H   0  0  0  0  0  0  0  0  0  0  0  0
    0.4205   -1.7967    2.3415 H   0  0  0  0  0  0  0  0  0  0  0  0
    2.5131   -1.8677    3.5798 H   0  0  0  0  0  0  0  0  0  0  0  0
    2.5777   -2.9784    2.2153 H   0  0  0  0  0  0  0  0  0  0  0  0
    4.6606   -1.5269    2.7224 H   0  0  0  0  0  0  0  0  0  0  0  0
    3.7388   -0.1481    2.0756 H   0  0  0  0  0  0  0  0  0  0  0  0
    5.7589    0.2780    1.3423 H   0  0  0  0  0  0  0  0  0  0  0  0
    6.3640    0.3749   -0.2046 H   0  0  0  0  0  0  0  0  0  0  0  0
    5.0083   -2.4200   -1.3802 H   0  0  0  0  0  0  0  0  0  0  0  0
    6.5450   -1.8044   -1.1995 H   0  0  0  0  0  0  0  0  0  0  0  0
  1  2  1  0
  2  3  1  0
  3  4  2  0
  4  5  1  0
  5  6  2  0
  6  7  1  0
  7  8  2  0
  8  9  1  0
  7 10  1  0
 10 11  1  0
  5 12  1  0
 12 13  2  0
 12 14  1  0
 14 15  1  0
 15 16  1  0
 16 17  1  0
 17 18  1  0
 18 19  1  0
 19 20  2  3
 20 21  1  0
 20 22  1  0
  8  3  1  0
  1 23  1  0
  1 24  1  0
  1 25  1  0
  4 26  1  0
  6 27  1  0
  9 28  1  0
 11 29  1  0
 11 30  1  0
 11 31  1  0
 15 32  1  0
 15 33  1  0
 16 34  1  0
 16 35  1  0
 17 36  1  0
 17 37  1  0
 18 38  1  0
 18 39  1  0
 21 40  1  0
 21 41  1  0
 22 42  1  0
 22 43  1  0
M  END
$$$$
leonurine.sdf
     RDKit          3D

 43 43  0  0  0  0  0  0  0  0999 V2000
   -4.3019    4.5815   -0.0166 C   0  0  0  0  0  0  0  0  0  0  0  0
   -4.8474    3.3170   -0.3781 O   0  0  0  0  0  0  0  0  0  0  0  0
   -3.9562    2.2896   -0.5612 C   0  0  0  0  0  0  0  0  0  0  0  0
   -2.5734    2.3718   -0.4239 C   0  0  0  0  0  0  0  0  0  0  0  0
   -1.7765    1.2358   -0.6419 C   0  0  0  0  0  0  0  0  0  0  0  0
   -2.3703    0.0130   -0.9993 C   0  0  0  0  0  0  0  0  0  0  0  0
   -3.7561   -0.0830   -1.1408 C   0  0  0  0  0  0  0  0  0  0  0  0
   -4.5323    1.0615   -0.9182 C   0  0  0  0  0  0  0  0  0  0  0  0
   -5.8989    0.9899   -1.0513 O   0  0  0  0  0  0  0  0  0  0  0  0
   -4.4361   -1.2209   -1.4838 O   0  0  0  0  0  0  0  0  0  0  0  0
   -3.6755   -2.3947   -1.7311 C   0  0  0  0  0  0  0  0  0  0  0  0
   -0.3033    1.3837   -0.4788 C   0  0  0  0  0  0  0  0  0  0  0  0
    0.2325    2.4359   -0.1680 O   0  0  0  0  0  0  0  0  0  0  0  0
    0.3246    0.2069   -0.7165 O   0  0  0  0  0  0  0  0  0  0  0  0
    1.7574    0.2214   -0.5886 C   0  0  0  0  0  0  0  0  0  0  0  0
    2.1510   -0.0555    0.8587 C   0  0  0  0  0  0  0  0  0  0  0  0
    3.6549    0.0579    1.1211 C   0  0  0  0  0  0  0  0  0  0  0  0
    4.5325   -0.8388    0.2488 C   0  0  0  0  0  0  0  0  0  0  0  0
    4.1113   -2.2316    0.3411 N   0  0  0  0  0  0  0  0  0  0  0  0
    4.5460   -2.9754    1.2835 C   0  0  0  0  0  0  0  0  0  0  0  0
    4.1393   -4.2607    1.3612 N   0  0  0  0  0  0  0  0  0  0  0  0
    5.3829   -2.6997    2.3070 N   0  0  0  0  0  0  0  0  0  0  0  0
   -3.7863    4.5271    0.9479 H   0  0  0  0  0  0  0  0  0  0  0  0
   -3.6397    4.9637   -0.8003 H   0  0  0  0  0  0  0  0  0  0  0  0
   -5.1332    5.2850    0.0894 H   0  0  0  0  0  0  0  0  0  0  0  0
   -2.0863    3.3027   -0.1486 H   0  0  0  0  0  0  0  0  0  0  0  0
   -1.7374   -0.8527   -1.1624 H   0  0  0  0  0  0  0  0  0  0  0  0
   -6.2254    1.8878   -0.8537 H   0  0  0  0  0  0  0  0  0  0  0  0
   -2.9941   -2.2533   -2.5764 H   0  0  0  0  0  0  0  0  0  0  0  0
   -4.3725   -3.1955   -1.9965 H   0  0  0  0  0  0  0  0  0  0  0  0
   -3.1333   -2.7100   -0.8336 H   0  0  0  0  0  0  0  0  0  0  0  0
    2.1732    1.1694   -0.9499 H   0  0  0  0  0  0  0  0  0  0  0  0
    2.1331   -0.5674   -1.2479 H   0  0  0  0  0  0  0  0  0  0  0  0
    1.6275    0.6438    1.5223 H   0  0  0  0  0  0  0  0  0  0  0  0
    1.7865   -1.0492    1.1471 H   0  0  0  0  0  0  0  0  0  0  0  0
    3.9660    1.0994    0.9739 H   0  0  0  0  0  0  0  0  0  0  0  0
    3.8353   -0.1726    2.1780 H   0  0  0  0  0  0  0  0  0  0  0  0
    5.5886   -0.7077    0.5108 H   0  0  0  0  0  0  0  0  0  0  0  0
    4.4586   -0.5280   -0.7994 H   0  0  0  0  0  0  0  0  0  0  0  0
    3.3894   -4.4201    0.6949 H   0  0  0  0  0  0  0  0  0  0  0  0
    3.8383   -4.5091    2.2957 H   0  0  0  0  0  0  0  0  0  0  0  0
    5.9080   -1.8418    2.2053 H   0  0  0  0  0  0  0  0  0  0  0  0
    5.9994   -3.4771    2.5147 H   0  0  0  0  0  0  0  0  0  0  0  0
  1  2  1  0
  2  3  1  0
  3  4  2  0
  4  5  1  0
  5  6  2  0
  6  7  1  0
  7  8  2  0
  8  9  1  0
  7 10  1  0
 10 11  1  0
  5 12  1  0
 12 13  2  0
 12 14  1  0
 14 15  1  0
 15 16  1  0
 16 17  1  0
 17 18  1  0
 18 19  1  0
 19 20  2  3
 20 21  1  0
 20 22  1  0
  8  3  1  0
  1 23  1  0
  1 24  1  0
  1 25  1  0
  4 26  1  0
  6 27  1  0
  9 28  1  0
 11 29  1  0
 11 30  1  0
 11 31  1  0
 15 32  1  0
 15 33  1  0
 16 34  1  0
 16 35  1  0
 17 36  1  0
 17 37  1  0
 18 38  1  0
 18 39  1  0
 21 40  1  0
 21 41  1  0
 22 42  1  0
 22 43  1  0
M  END
$$$$
leonurine.sdf
     RDKit          3D

 43 43  0  0  0  0  0  0  0  0999 V2000
   -4.4290    4.9041   -0.1444 C   0  0  0  0  0  0  0  0  0  0  0  0
   -4.8840    3.7651   -0.8615 O   0  0  0  0  0  0  0  0  0  0  0  0
   -4.0948    2.6469   -0.8416 C   0  0  0  0  0  0  0  0  0  0  0  0
   -2.8713    2.5388   -0.1797 C   0  0  0  0  0  0  0  0  0  0  0  0
   -2.1387    1.3398   -0.2254 C   0  0  0  0  0  0  0  0  0  0  0  0
   -2.6334    0.2353   -0.9379 C   0  0  0  0  0  0  0  0  0  0  0  0
   -3.8541    0.3300   -1.6028 C   0  0  0  0  0  0  0  0  0  0  0  0
   -4.5706    1.5354   -1.5477 C   0  0  0  0  0  0  0  0  0  0  0  0
   -5.7734    1.6168   -2.2086 O   0  0  0  0  0  0  0  0  0  0  0  0
   -4.4536   -0.6655   -2.3333 O   0  0  0  0  0  0  0  0  0  0  0  0
   -3.7692   -1.9113   -2.4070 C   0  0  0  0  0  0  0  0  0  0  0  0
   -0.8405    1.2946    0.5034 C   0  0  0  0  0  0  0  0  0  0  0  0
   -0.4019    2.2278    1.1563 O   0  0  0  0  0  0  0  0  0  0  0  0
   -0.2352    0.0933    0.3313 O   0  0  0  0  0  0  0  0  0  0  0  0
    1.0245   -0.0357    1.0085 C   0  0  0  0  0  0  0  0  0  0  0  0
    1.5768   -1.4234    0.6993 C   0  0  0  0  0  0  0  0  0  0  0  0
    2.8723   -1.7481    1.4407 C   0  0  0  0  0  0  0  0  0  0  0  0
    4.0478   -0.8662    1.0226 C   0  0  0  0  0  0  0  0  0  0  0  0
    5.2479   -1.2763    1.7434 N   0  0  0  0  0  0  0  0  0  0  0  0
    6.0148   -2.1785    1.2669 C   0  0  0  0  0  0  0  0  0  0  0  0
    5.9234   -2.9021    0.1299 N   0  0  0  0  0  0  0  0  0  0  0  0
    7.1155   -2.5497    1.9556 N   0  0  0  0  0  0  0  0  0  0  0  0
   -5.1761    5.6948   -0.2632 H   0  0  0  0  0  0  0  0  0  0  0  0
   -3.4836    5.2760   -0.5530 H   0  0  0  0  0  0  0  0  0  0  0  0
   -4.3407    4.6881    0.9254 H   0  0  0  0  0  0  0  0  0  0  0  0
   -2.4610    3.3739    0.3809 H   0  0  0  0  0  0  0  0  0  0  0  0
   -2.0566   -0.6825   -0.9612 H   0  0  0  0  0  0  0  0  0  0  0  0
   -5.9031    0.7425   -2.6211 H   0  0  0  0  0  0  0  0  0  0  0  0
   -3.6593   -2.3602   -1.4144 H   0  0  0  0  0  0  0  0  0  0  0  0
   -4.3760   -2.5899   -3.0141 H   0  0  0  0  0  0  0  0  0  0  0  0
   -2.7988   -1.7991   -2.9017 H   0  0  0  0  0  0  0  0  0  0  0  0
    0.8706    0.0792    2.0876 H   0  0  0  0  0  0  0  0  0  0  0  0
    1.7066    0.7408    0.6461 H   0  0  0  0  0  0  0  0  0  0  0  0
    0.8189   -2.1722    0.9630 H   0  0  0  0  0  0  0  0  0  0  0  0
    1.7243   -1.5259   -0.3832 H   0  0  0  0  0  0  0  0  0  0  0  0
    3.1215   -2.7997    1.2521 H   0  0  0  0  0  0  0  0  0  0  0  0
    2.7117   -1.6611    2.5225 H   0  0  0  0  0  0  0  0  0  0  0  0
    3.8470    0.1766    1.2906 H   0  0  0  0  0  0  0  0  0  0  0  0
    4.1861   -0.8753   -0.0641 H   0  0  0  0  0  0  0  0  0  0  0  0
    6.8324   -3.0651   -0.2882 H   0  0  0  0  0  0  0  0  0  0  0  0
    5.2754   -2.5348   -0.5532 H   0  0  0  0  0  0  0  0  0  0  0  0
    7.1910   -3.5560    2.0393 H   0  0  0  0  0  0  0  0  0  0  0  0
    7.0966   -2.1211    2.8767 H   0  0  0  0  0  0  0  0  0  0  0  0
  1  2  1  0
  2  3  1  0
  3  4  2  0
  4  5  1  0
  5  6  2  0
  6  7  1  0
  7  8  2  0
  8  9  1  0
  7 10  1  0
 10 11  1  0
  5 12  1  0
 12 13  2  0
 12 14  1  0
 14 15  1  0
 15 16  1  0
 16 17  1  0
 17 18  1  0
 18 19  1  0
 19 20  2  3
 20 21  1  0
 20 22  1  0
  8  3  1  0
  1 23  1  0
  1 24  1  0
  1 25  1  0
  4 26  1  0
  6 27  1  0
  9 28  1  0
 11 29  1  0
 11 30  1  0
 11 31  1  0
 15 32  1  0
 15 33  1  0
 16 34  1  0
 16 35  1  0
 17 36  1  0
 17 37  1  0
 18 38  1  0
 18 39  1  0
 21 40  1  0
 21 41  1  0
 22 42  1  0
 22 43  1  0
M  END
$$$$
leonurine.sdf
     RDKit          3D

 43 43  0  0  0  0  0  0  0  0999 V2000
   -2.5447    4.5305   -0.3721 C   0  0  0  0  0  0  0  0  0  0  0  0
   -3.6279    3.6120   -0.3667 O   0  0  0  0  0  0  0  0  0  0  0  0
   -3.3457    2.2940   -0.6075 C   0  0  0  0  0  0  0  0  0  0  0  0
   -2.0734    1.7780   -0.8620 C   0  0  0  0  0  0  0  0  0  0  0  0
   -1.8991    0.4032   -1.0967 C   0  0  0  0  0  0  0  0  0  0  0  0
   -3.0046   -0.4632   -1.0759 C   0  0  0  0  0  0  0  0  0  0  0  0
   -4.2785    0.0382   -0.8237 C   0  0  0  0  0  0  0  0  0  0  0  0
   -4.4345    1.4128   -0.5924 C   0  0  0  0  0  0  0  0  0  0  0  0
   -5.6964    1.8991   -0.3442 O   0  0  0  0  0  0  0  0  0  0  0  0
   -5.4384   -0.6936   -0.7754 O   0  0  0  0  0  0  0  0  0  0  0  0
   -5.3221   -2.0939   -1.0053 C   0  0  0  0  0  0  0  0  0  0  0  0
   -0.5612   -0.1916   -1.3710 C   0  0  0  0  0  0  0  0  0  0  0  0
   -0.3882   -1.3856   -1.5564 O   0  0  0  0  0  0  0  0  0  0  0  0
    0.3956    0.7680   -1.3826 O   0  0  0  0  0  0  0  0  0  0  0  0
    1.7393    0.3154   -1.6173 C   0  0  0  0  0  0  0  0  0  0  0  0
    2.4125   -0.0070   -0.2876 C   0  0  0  0  0  0  0  0  0  0  0  0
    3.8770   -0.4021   -0.4832 C   0  0  0  0  0  0  0  0  0  0  0  0
    4.5865   -0.6854    0.8411 C   0  0  0  0  0  0  0  0  0  0  0  0
    4.0164   -1.8887    1.4359 N   0  0  0  0  0  0  0  0  0  0  0  0
    4.4031   -2.2342    2.6036 C   0  0  0  0  0  0  0  0  0  0  0  0
    3.8741   -3.3289    3.1903 N   0  0  0  0  0  0  0  0  0  0  0  0
    5.3079   -1.6593    3.4257 N   0  0  0  0  0  0  0  0  0  0  0  0
   -2.9486    5.5258   -0.1630 H   0  0  0  0  0  0  0  0  0  0  0  0
   -1.8216    4.2931    0.4152 H   0  0  0  0  0  0  0  0  0  0  0  0
   -2.0627    4.5670   -1.3546 H   0  0  0  0  0  0  0  0  0  0  0  0
   -1.2069    2.4300   -0.8805 H   0  0  0  0  0  0  0  0  0  0  0  0
   -2.8388   -1.5208   -1.2596 H   0  0  0  0  0  0  0  0  0  0  0  0
   -6.2849    1.1218   -0.3820 H   0  0  0  0  0  0  0  0  0  0  0  0
   -4.9420   -2.2980   -2.0117 H   0  0  0  0  0  0  0  0  0  0  0  0
   -4.6979   -2.5684   -0.2409 H   0  0  0  0  0  0  0  0  0  0  0  0
   -6.3241   -2.5278   -0.9334 H   0  0  0  0  0  0  0  0  0  0  0  0
    2.2648    1.1371   -2.1158 H   0  0  0  0  0  0  0  0  0  0  0  0
    1.7600   -0.5403   -2.3026 H   0  0  0  0  0  0  0  0  0  0  0  0
    2.3409    0.8647    0.3747 H   0  0  0  0  0  0  0  0  0  0  0  0
    1.8603   -0.8107    0.2137 H   0  0  0  0  0  0  0  0  0  0  0  0
    3.9365   -1.2847   -1.1320 H   0  0  0  0  0  0  0  0  0  0  0  0
    4.4047    0.4118   -0.9950 H   0  0  0  0  0  0  0  0  0  0  0  0
    5.6532   -0.8391    0.6394 H   0  0  0  0  0  0  0  0  0  0  0  0
    4.4793    0.1783    1.5081 H   0  0  0  0  0  0  0  0  0  0  0  0
    3.0919   -3.6625    2.6335 H   0  0  0  0  0  0  0  0  0  0  0  0
    3.5729   -3.1437    4.1391 H   0  0  0  0  0  0  0  0  0  0  0  0
    5.9232   -1.0014    2.9650 H   0  0  0  0  0  0  0  0  0  0  0  0
    5.8421   -2.3501    3.9405 H   0  0  0  0  0  0  0  0  0  0  0  0
  1  2  1  0
  2  3  1  0
  3  4  2  0
  4  5  1  0
  5  6  2  0
  6  7  1  0
  7  8  2  0
  8  9  1  0
  7 10  1  0
 10 11  1  0
  5 12  1  0
 12 13  2  0
 12 14  1  0
 14 15  1  0
 15 16  1  0
 16 17  1  0
 17 18  1  0
 18 19  1  0
 19 20  2  3
 20 21  1  0
 20 22  1  0
  8  3  1  0
  1 23  1  0
  1 24  1  0
  1 25  1  0
  4 26  1  0
  6 27  1  0
  9 28  1  0
 11 29  1  0
 11 30  1  0
 11 31  1  0
 15 32  1  0
 15 33  1  0
 16 34  1  0
 16 35  1  0
 17 36  1  0
 17 37  1  0
 18 38  1  0
 18 39  1  0
 21 40  1  0
 21 41  1  0
 22 42  1  0
 22 43  1  0
M  END
$$$$
leonurine.sdf
     RDKit          3D

 43 43  0  0  0  0  0  0  0  0999 V2000
   -2.1675    4.1654    0.4308 C   0  0  0  0  0  0  0  0  0  0  0  0
   -3.2154    3.5936   -0.3387 O   0  0  0  0  0  0  0  0  0  0  0  0
   -3.1691    2.2455   -0.5739 C   0  0  0  0  0  0  0  0  0  0  0  0
   -2.1624    1.3864   -0.1289 C   0  0  0  0  0  0  0  0  0  0  0  0
   -2.2157    0.0145   -0.4300 C   0  0  0  0  0  0  0  0  0  0  0  0
   -3.2832   -0.5034   -1.1817 C   0  0  0  0  0  0  0  0  0  0  0  0
   -4.2932    0.3422   -1.6319 C   0  0  0  0  0  0  0  0  0  0  0  0
   -4.2242    1.7087   -1.3227 C   0  0  0  0  0  0  0  0  0  0  0  0
   -5.2262    2.5362   -1.7718 O   0  0  0  0  0  0  0  0  0  0  0  0
   -5.3872   -0.0305   -2.3718 O   0  0  0  0  0  0  0  0  0  0  0  0
   -5.4952   -1.4105   -2.7051 C   0  0  0  0  0  0  0  0  0  0  0  0
   -1.1638   -0.9378    0.0231 C   0  0  0  0  0  0  0  0  0  0  0  0
   -1.1904   -2.1323   -0.2282 O   0  0  0  0  0  0  0  0  0  0  0  0
   -0.2048   -0.2909    0.7284 O   0  0  0  0  0  0  0  0  0  0  0  0
    0.8721   -1.1073    1.2213 C   0  0  0  0  0  0  0  0  0  0  0  0
    1.9645   -1.2181    0.1626 C   0  0  0  0  0  0  0  0  0  0  0  0
    3.1021   -2.1672    0.5475 C   0  0  0  0  0  0  0  0  0  0  0  0
    3.8011   -1.8370    1.8657 C   0  0  0  0  0  0  0  0  0  0  0  0
    4.2741   -0.4578    1.8754 N   0  0  0  0  0  0  0  0  0  0  0  0
    5.4092   -0.1621    1.3711 C   0  0  0  0  0  0  0  0  0  0  0  0
    5.8293    1.1212    1.3791 N   0  0  0  0  0  0  0  0  0  0  0  0
    6.3337   -0.9404    0.7683 N   0  0  0  0  0  0  0  0  0  0  0  0
   -2.3675    5.2371    0.5248 H   0  0  0  0  0  0  0  0  0  0  0  0
   -2.1423    3.7422    1.4404 H   0  0  0  0  0  0  0  0  0  0  0  0
   -1.2012    4.0504   -0.0712 H   0  0  0  0  0  0  0  0  0  0  0  0
   -1.3291    1.7666    0.4522 H   0  0  0  0  0  0  0  0  0  0  0  0
   -3.2973   -1.5675   -1.3988 H   0  0  0  0  0  0  0  0  0  0  0  0
   -5.8411    1.9567   -2.2594 H   0  0  0  0  0  0  0  0  0  0  0  0
   -4.6544   -1.7325   -3.3282 H   0  0  0  0  0  0  0  0  0  0  0  0
   -6.4116   -1.5418   -3.2886 H   0  0  0  0  0  0  0  0  0  0  0  0
   -5.5820   -2.0279   -1.8049 H   0  0  0  0  0  0  0  0  0  0  0  0
    1.2529   -0.6064    2.1170 H   0  0  0  0  0  0  0  0  0  0  0  0
    0.5056   -2.0924    1.5335 H   0  0  0  0  0  0  0  0  0  0  0  0
    2.3583   -0.2174   -0.0545 H   0  0  0  0  0  0  0  0  0  0  0  0
    1.5269   -1.5634   -0.7824 H   0  0  0  0  0  0  0  0  0  0  0  0
    3.8381   -2.1654   -0.2656 H   0  0  0  0  0  0  0  0  0  0  0  0
    2.7099   -3.1898    0.6077 H   0  0  0  0  0  0  0  0  0  0  0  0
    4.6088   -2.5527    2.0573 H   0  0  0  0  0  0  0  0  0  0  0  0
    3.1033   -1.9651    2.7008 H   0  0  0  0  0  0  0  0  0  0  0  0
    6.1737    1.4148    0.4731 H   0  0  0  0  0  0  0  0  0  0  0  0
    5.0701    1.7249    1.6806 H   0  0  0  0  0  0  0  0  0  0  0  0
    6.2120   -1.9333    0.9148 H   0  0  0  0  0  0  0  0  0  0  0  0
    7.2792   -0.6555    0.9974 H   0  0  0  0  0  0  0  0  0  0  0  0
  1  2  1  0
  2  3  1  0
  3  4  2  0
  4  5  1  0
  5  6  2  0
  6  7  1  0
  7  8  2  0
  8  9  1  0
  7 10  1  0
 10 11  1  0
  5 12  1  0
 12 13  2  0
 12 14  1  0
 14 15  1  0
 15 16  1  0
 16 17  1  0
 17 18  1  0
 18 19  1  0
 19 20  2  3
 20 21  1  0
 20 22  1  0
  8  3  1  0
  1 23  1  0
  1 24  1  0
  1 25  1  0
  4 26  1  0
  6 27  1  0
  9 28  1  0
 11 29  1  0
 11 30  1  0
 11 31  1  0
 15 32  1  0
 15 33  1  0
 16 34  1  0
 16 35  1  0
 17 36  1  0
 17 37  1  0
 18 38  1  0
 18 39  1  0
 21 40  1  0
 21 41  1  0
 22 42  1  0
 22 43  1  0
M  END
$$$$
leonurine.sdf
     RDKit          3D

 43 43  0  0  0  0  0  0  0  0999 V2000
   -3.5986    4.8437   -0.0143 C   0  0  0  0  0  0  0  0  0  0  0  0
   -4.3894    3.7838   -0.5334 O   0  0  0  0  0  0  0  0  0  0  0  0
   -3.8218    2.5396   -0.5923 C   0  0  0  0  0  0  0  0  0  0  0  0
   -2.5309    2.2245   -0.1670 C   0  0  0  0  0  0  0  0  0  0  0  0
   -2.0458    0.9092   -0.2718 C   0  0  0  0  0  0  0  0  0  0  0  0
   -2.8576   -0.1031   -0.8091 C   0  0  0  0  0  0  0  0  0  0  0  0
   -4.1486    0.1982   -1.2377 C   0  0  0  0  0  0  0  0  0  0  0  0
   -4.6164    1.5163   -1.1234 C   0  0  0  0  0  0  0  0  0  0  0  0
   -5.8923    1.8011   -1.5488 O   0  0  0  0  0  0  0  0  0  0  0  0
   -5.0458   -0.6881   -1.7795 O   0  0  0  0  0  0  0  0  0  0  0  0
   -4.6110   -2.0352   -1.9274 C   0  0  0  0  0  0  0  0  0  0  0  0
   -0.6587    0.6443    0.2018 C   0  0  0  0  0  0  0  0  0  0  0  0
    0.0763    1.5110    0.6470 O   0  0  0  0  0  0  0  0  0  0  0  0
   -0.3479   -0.6691    0.0665 O   0  0  0  0  0  0  0  0  0  0  0  0
    0.9750   -1.0419    0.4877 C   0  0  0  0  0  0  0  0  0  0  0  0
    1.9547   -0.8614   -0.6681 C   0  0  0  0  0  0  0  0  0  0  0  0
    3.3686   -1.3417   -0.3450 C   0  0  0  0  0  0  0  0  0  0  0  0
    4.0780   -0.4743    0.6938 C   0  0  0  0  0  0  0  0  0  0  0  0
    5.4620   -0.9189    0.8268 N   0  0  0  0  0  0  0  0  0  0  0  0
    5.7894   -1.7439    1.7440 C   0  0  0  0  0  0  0  0  0  0  0  0
    5.0354   -2.3635    2.6776 N   0  0  0  0  0  0  0  0  0  0  0  0
    7.0805   -2.1168    1.8778 N   0  0  0  0  0  0  0  0  0  0  0  0
   -3.3306    4.6605    1.0315 H   0  0  0  0  0  0  0  0  0  0  0  0
   -4.1998    5.7574   -0.0480 H   0  0  0  0  0  0  0  0  0  0  0  0
   -2.7073    5.0093   -0.6285 H   0  0  0  0  0  0  0  0  0  0  0  0
   -1.8775    2.9845    0.2522 H   0  0  0  0  0  0  0  0  0  0  0  0
   -2.4676   -1.1120   -0.8848 H   0  0  0  0  0  0  0  0  0  0  0  0
   -6.2521    0.9557   -1.8764 H   0  0  0  0  0  0  0  0  0  0  0  0
   -5.4325   -2.6038   -2.3740 H   0  0  0  0  0  0  0  0  0  0  0  0
   -4.3842   -2.4850   -0.9552 H   0  0  0  0  0  0  0  0  0  0  0  0
   -3.7533   -2.1007   -2.6050 H   0  0  0  0  0  0  0  0  0  0  0  0
    0.9278   -2.0974    0.7769 H   0  0  0  0  0  0  0  0  0  0  0  0
    1.2707   -0.4796    1.3800 H   0  0  0  0  0  0  0  0  0  0  0  0
    1.5782   -1.4187   -1.5353 H   0  0  0  0  0  0  0  0  0  0  0  0
    1.9765    0.1888   -0.9830 H   0  0  0  0  0  0  0  0  0  0  0  0
    3.3391   -2.3848   -0.0070 H   0  0  0  0  0  0  0  0  0  0  0  0
    3.9557   -1.3366   -1.2724 H   0  0  0  0  0  0  0  0  0  0  0  0
    3.5484   -0.4721    1.6521 H   0  0  0  0  0  0  0  0  0  0  0  0
    4.0911    0.5679    0.3541 H   0  0  0  0  0  0  0  0  0  0  0  0
    5.3610   -3.3057    2.8613 H   0  0  0  0  0  0  0  0  0  0  0  0
    4.0441   -2.3588    2.4796 H   0  0  0  0  0  0  0  0  0  0  0  0
    7.6592   -1.5384    1.2749 H   0  0  0  0  0  0  0  0  0  0  0  0
    7.3982   -2.0439    2.8367 H   0  0  0  0  0  0  0  0  0  0  0  0
  1  2  1  0
  2  3  1  0
  3  4  2  0
  4  5  1  0
  5  6  2  0
  6  7  1  0
  7  8  2  0
  8  9  1  0
  7 10  1  0
 10 11  1  0
  5 12  1  0
 12 13  2  0
 12 14  1  0
 14 15  1  0
 15 16  1  0
 16 17  1  0
 17 18  1  0
 18 19  1  0
 19 20  2  3
 20 21  1  0
 20 22  1  0
  8  3  1  0
  1 23  1  0
  1 24  1  0
  1 25  1  0
  4 26  1  0
  6 27  1  0
  9 28  1  0
 11 29  1  0
 11 30  1  0
 11 31  1  0
 15 32  1  0
 15 33  1  0
 16 34  1  0
 16 35  1  0
 17 36  1  0
 17 37  1  0
 18 38  1  0
 18 39  1  0
 21 40  1  0
 21 41  1  0
 22 42  1  0
 22 43  1  0
M  END
$$$$
leonurine.sdf
     RDKit          3D

 43 43  0  0  0  0  0  0  0  0999 V2000
   -2.8511    4.2761    0.1553 C   0  0  0  0  0  0  0  0  0  0  0  0
   -3.8816    3.4858   -0.4197 O   0  0  0  0  0  0  0  0  0  0  0  0
   -3.6139    2.1641   -0.6567 C   0  0  0  0  0  0  0  0  0  0  0  0
   -2.4062    1.5249   -0.3694 C   0  0  0  0  0  0  0  0  0  0  0  0
   -2.2415    0.1587   -0.6556 C   0  0  0  0  0  0  0  0  0  0  0  0
   -3.2907   -0.5749   -1.2333 C   0  0  0  0  0  0  0  0  0  0  0  0
   -4.4998    0.0505   -1.5246 C   0  0  0  0  0  0  0  0  0  0  0  0
   -4.6477    1.4144   -1.2322 C   0  0  0  0  0  0  0  0  0  0  0  0
   -5.8454    2.0236   -1.5230 O   0  0  0  0  0  0  0  0  0  0  0  0
   -5.6011   -0.5449   -2.0864 O   0  0  0  0  0  0  0  0  0  0  0  0
   -5.4908   -1.9288   -2.4025 C   0  0  0  0  0  0  0  0  0  0  0  0
   -0.9719   -0.5634   -0.3656 C   0  0  0  0  0  0  0  0  0  0  0  0
   -0.8040   -1.7499   -0.6004 O   0  0  0  0  0  0  0  0  0  0  0  0
   -0.0559    0.2718    0.1835 O   0  0  0  0  0  0  0  0  0  0  0  0
    1.1996   -0.3512    0.4897 C   0  0  0  0  0  0  0  0  0  0  0  0
    2.0988    0.6952    1.1386 C   0  0  0  0  0  0  0  0  0  0  0  0
    3.4393    0.1359    1.6122 C   0  0  0  0  0  0  0  0  0  0  0  0
    4.3391   -0.3313    0.4693 C   0  0  0  0  0  0  0  0  0  0  0  0
    5.6447   -0.7038    1.0040 N   0  0  0  0  0  0  0  0  0  0  0  0
    5.8922   -1.9194    1.3061 C   0  0  0  0  0  0  0  0  0  0  0  0
    5.1058   -3.0160    1.2482 N   0  0  0  0  0  0  0  0  0  0  0  0
    7.1156   -2.2579    1.7668 N   0  0  0  0  0  0  0  0  0  0  0  0
   -1.9753    4.3212   -0.5004 H   0  0  0  0  0  0  0  0  0  0  0  0
   -3.2341    5.2948    0.2688 H   0  0  0  0  0  0  0  0  0  0  0  0
   -2.5816    3.9093    1.1512 H   0  0  0  0  0  0  0  0  0  0  0  0
   -1.5841    2.0739    0.0769 H   0  0  0  0  0  0  0  0  0  0  0  0
   -3.1341   -1.6289   -1.4432 H   0  0  0  0  0  0  0  0  0  0  0  0
   -6.4049    1.3243   -1.9100 H   0  0  0  0  0  0  0  0  0  0  0  0
   -5.3211   -2.5266   -1.5010 H   0  0  0  0  0  0  0  0  0  0  0  0
   -6.4419   -2.2477   -2.8396 H   0  0  0  0  0  0  0  0  0  0  0  0
   -4.7071   -2.1017   -3.1473 H   0  0  0  0  0  0  0  0  0  0  0  0
    1.6466   -0.7233   -0.4383 H   0  0  0  0  0  0  0  0  0  0  0  0
    1.0351   -1.1860    1.1811 H   0  0  0  0  0  0  0  0  0  0  0  0
    1.5714    1.1310    1.9968 H   0  0  0  0  0  0  0  0  0  0  0  0
    2.2585    1.5263    0.4404 H   0  0  0  0  0  0  0  0  0  0  0  0
    3.9598    0.9184    2.1792 H   0  0  0  0  0  0  0  0  0  0  0  0
    3.2684   -0.6887    2.3152 H   0  0  0  0  0  0  0  0  0  0  0  0
    3.8798   -1.1430   -0.1044 H   0  0  0  0  0  0  0  0  0  0  0  0
    4.4886    0.4917   -0.2392 H   0  0  0  0  0  0  0  0  0  0  0  0
    5.2898   -3.6552    2.0132 H   0  0  0  0  0  0  0  0  0  0  0  0
    4.1165   -2.8179    1.1796 H   0  0  0  0  0  0  0  0  0  0  0  0
    7.4926   -3.0655    1.2858 H   0  0  0  0  0  0  0  0  0  0  0  0
    7.7438   -1.4657    1.6654 H   0  0  0  0  0  0  0  0  0  0  0  0
  1  2  1  0
  2  3  1  0
  3  4  2  0
  4  5  1  0
  5  6  2  0
  6  7  1  0
  7  8  2  0
  8  9  1  0
  7 10  1  0
 10 11  1  0
  5 12  1  0
 12 13  2  0
 12 14  1  0
 14 15  1  0
 15 16  1  0
 16 17  1  0
 17 18  1  0
 18 19  1  0
 19 20  2  3
 20 21  1  0
 20 22  1  0
  8  3  1  0
  1 23  1  0
  1 24  1  0
  1 25  1  0
  4 26  1  0
  6 27  1  0
  9 28  1  0
 11 29  1  0
 11 30  1  0
 11 31  1  0
 15 32  1  0
 15 33  1  0
 16 34  1  0
 16 35  1  0
 17 36  1  0
 17 37  1  0
 18 38  1  0
 18 39  1  0
 21 40  1  0
 21 41  1  0
 22 42  1  0
 22 43  1  0
M  END
$$$$
leonurine.sdf
     RDKit          3D

 43 43  0  0  0  0  0  0  0  0999 V2000
   -0.9641    3.9102   -0.3190 C   0  0  0  0  0  0  0  0  0  0  0  0
   -2.3039    3.4676   -0.4786 O   0  0  0  0  0  0  0  0  0  0  0  0
   -2.5118    2.1312   -0.6920 C   0  0  0  0  0  0  0  0  0  0  0  0
   -1.5108    1.1585   -0.7296 C   0  0  0  0  0  0  0  0  0  0  0  0
   -1.8395   -0.1893   -0.9560 C   0  0  0  0  0  0  0  0  0  0  0  0
   -3.1783   -0.5683   -1.1475 C   0  0  0  0  0  0  0  0  0  0  0  0
   -4.1860    0.3914   -1.1109 C   0  0  0  0  0  0  0  0  0  0  0  0
   -3.8407    1.7316   -0.8825 C   0  0  0  0  0  0  0  0  0  0  0  0
   -4.8426    2.6725   -0.8478 O   0  0  0  0  0  0  0  0  0  0  0  0
   -5.5278    0.1589   -1.2799 O   0  0  0  0  0  0  0  0  0  0  0  0
   -5.9197   -1.1896   -1.5154 C   0  0  0  0  0  0  0  0  0  0  0  0
   -0.8051   -1.2599   -1.0027 C   0  0  0  0  0  0  0  0  0  0  0  0
   -1.0637   -2.4291   -1.2390 O   0  0  0  0  0  0  0  0  0  0  0  0
    0.4218   -0.7488   -0.7390 O   0  0  0  0  0  0  0  0  0  0  0  0
    1.5066   -1.6904   -0.7344 C   0  0  0  0  0  0  0  0  0  0  0  0
    1.6377   -2.3753    0.6235 C   0  0  0  0  0  0  0  0  0  0  0  0
    1.7212   -1.4151    1.8170 C   0  0  0  0  0  0  0  0  0  0  0  0
    2.8334   -0.3702    1.7251 C   0  0  0  0  0  0  0  0  0  0  0  0
    4.1158   -1.0477    1.5685 N   0  0  0  0  0  0  0  0  0  0  0  0
    5.1653   -0.3336    1.4194 C   0  0  0  0  0  0  0  0  0  0  0  0
    6.3656   -0.9275    1.2500 N   0  0  0  0  0  0  0  0  0  0  0  0
    5.3059    1.0097    1.3904 N   0  0  0  0  0  0  0  0  0  0  0  0
   -0.9842    4.9950   -0.1774 H   0  0  0  0  0  0  0  0  0  0  0  0
   -0.5058    3.4672    0.5714 H   0  0  0  0  0  0  0  0  0  0  0  0
   -0.3696    3.7027   -1.2149 H   0  0  0  0  0  0  0  0  0  0  0  0
   -0.4710    1.4307   -0.5854 H   0  0  0  0  0  0  0  0  0  0  0  0
   -3.4014   -1.6170   -1.3210 H   0  0  0  0  0  0  0  0  0  0  0  0
   -5.6685    2.1767   -1.0025 H   0  0  0  0  0  0  0  0  0  0  0  0
   -5.4828   -1.5705   -2.4444 H   0  0  0  0  0  0  0  0  0  0  0  0
   -7.0080   -1.2055   -1.6281 H   0  0  0  0  0  0  0  0  0  0  0  0
   -5.6634   -1.8289   -0.6642 H   0  0  0  0  0  0  0  0  0  0  0  0
    2.4177   -1.1324   -0.9741 H   0  0  0  0  0  0  0  0  0  0  0  0
    1.3828   -2.4314   -1.5335 H   0  0  0  0  0  0  0  0  0  0  0  0
    2.5153   -3.0319    0.6084 H   0  0  0  0  0  0  0  0  0  0  0  0
    0.7674   -3.0232    0.7841 H   0  0  0  0  0  0  0  0  0  0  0  0
    1.8662   -2.0140    2.7251 H   0  0  0  0  0  0  0  0  0  0  0  0
    0.7618   -0.8975    1.9377 H   0  0  0  0  0  0  0  0  0  0  0  0
    2.8283    0.2202    2.6493 H   0  0  0  0  0  0  0  0  0  0  0  0
    2.6409    0.3108    0.8882 H   0  0  0  0  0  0  0  0  0  0  0  0
    6.8816   -0.5350    0.4721 H   0  0  0  0  0  0  0  0  0  0  0  0
    6.2358   -1.9267    1.1200 H   0  0  0  0  0  0  0  0  0  0  0  0
    6.1643    1.3087    1.8396 H   0  0  0  0  0  0  0  0  0  0  0  0
    4.5136    1.5153    1.7649 H   0  0  0  0  0  0  0  0  0  0  0  0
  1  2  1  0
  2  3  1  0
  3  4  2  0
  4  5  1  0
  5  6  2  0
  6  7  1  0
  7  8  2  0
  8  9  1  0
  7 10  1  0
 10 11  1  0
  5 12  1  0
 12 13  2  0
 12 14  1  0
 14 15  1  0
 15 16  1  0
 16 17  1  0
 17 18  1  0
 18 19  1  0
 19 20  2  3
 20 21  1  0
 20 22  1  0
  8  3  1  0
  1 23  1  0
  1 24  1  0
  1 25  1  0
  4 26  1  0
  6 27  1  0
  9 28  1  0
 11 29  1  0
 11 30  1  0
 11 31  1  0
 15 32  1  0
 15 33  1  0
 16 34  1  0
 16 35  1  0
 17 36  1  0
 17 37  1  0
 18 38  1  0
 18 39  1  0
 21 40  1  0
 21 41  1  0
 22 42  1  0
 22 43  1  0
M  END
$$$$
leonurine.sdf
     RDKit          3D

 43 43  0  0  0  0  0  0  0  0999 V2000
   -2.3333    4.9100   -0.9360 C   0  0  0  0  0  0  0  0  0  0  0  0
   -3.3511    3.9799   -1.2916 O   0  0  0  0  0  0  0  0  0  0  0  0
   -3.0957    2.6567   -1.0321 C   0  0  0  0  0  0  0  0  0  0  0  0
   -1.9421    2.1462   -0.4437 C   0  0  0  0  0  0  0  0  0  0  0  0
   -1.8117    0.7632   -0.2350 C   0  0  0  0  0  0  0  0  0  0  0  0
   -2.8432   -0.1105   -0.6204 C   0  0  0  0  0  0  0  0  0  0  0  0
   -4.0056    0.3885   -1.2117 C   0  0  0  0  0  0  0  0  0  0  0  0
   -4.1159    1.7709   -1.4088 C   0  0  0  0  0  0  0  0  0  0  0  0
   -5.2522    2.2843   -1.9882 O   0  0  0  0  0  0  0  0  0  0  0  0
   -5.0688   -0.3703   -1.6225 O   0  0  0  0  0  0  0  0  0  0  0  0
   -4.9769   -1.7782   -1.4600 C   0  0  0  0  0  0  0  0  0  0  0  0
   -0.5548    0.2765    0.3999 C   0  0  0  0  0  0  0  0  0  0  0  0
    0.3492    1.0216    0.7416 O   0  0  0  0  0  0  0  0  0  0  0  0
   -0.5792   -1.0713    0.5338 O   0  0  0  0  0  0  0  0  0  0  0  0
    0.5964   -1.6785    1.0984 C   0  0  0  0  0  0  0  0  0  0  0  0
    1.4940   -2.1759   -0.0295 C   0  0  0  0  0  0  0  0  0  0  0  0
    2.6632   -3.0387    0.4539 C   0  0  0  0  0  0  0  0  0  0  0  0
    3.6670   -2.3102    1.3485 C   0  0  0  0  0  0  0  0  0  0  0  0
    4.2808   -1.2307    0.5860 N   0  0  0  0  0  0  0  0  0  0  0  0
    5.1721   -0.5120    1.1531 C   0  0  0  0  0  0  0  0  0  0  0  0
    5.6721   -0.5731    2.4067 N   0  0  0  0  0  0  0  0  0  0  0  0
    5.7714    0.4835    0.4659 N   0  0  0  0  0  0  0  0  0  0  0  0
   -1.4104    4.7168   -1.4927 H   0  0  0  0  0  0  0  0  0  0  0  0
   -2.1545    4.9044    0.1443 H   0  0  0  0  0  0  0  0  0  0  0  0
   -2.6846    5.9093   -1.2102 H   0  0  0  0  0  0  0  0  0  0  0  0
   -1.1278    2.7963   -0.1370 H   0  0  0  0  0  0  0  0  0  0  0  0
   -2.7230   -1.1751   -0.4516 H   0  0  0  0  0  0  0  0  0  0  0  0
   -5.1094    3.2486   -2.0267 H   0  0  0  0  0  0  0  0  0  0  0  0
   -4.1416   -2.1891   -2.0366 H   0  0  0  0  0  0  0  0  0  0  0  0
   -5.8988   -2.2210   -1.8489 H   0  0  0  0  0  0  0  0  0  0  0  0
   -4.8987   -2.0488   -0.4019 H   0  0  0  0  0  0  0  0  0  0  0  0
    1.1193   -0.9904    1.7710 H   0  0  0  0  0  0  0  0  0  0  0  0
    0.2515   -2.5227    1.7051 H   0  0  0  0  0  0  0  0  0  0  0  0
    0.8878   -2.7667   -0.7284 H   0  0  0  0  0  0  0  0  0  0  0  0
    1.8583   -1.3225   -0.6140 H   0  0  0  0  0  0  0  0  0  0  0  0
    3.1881   -3.4305   -0.4265 H   0  0  0  0  0  0  0  0  0  0  0  0
    2.2693   -3.9064    0.9969 H   0  0  0  0  0  0  0  0  0  0  0  0
    4.4315   -3.0292    1.6671 H   0  0  0  0  0  0  0  0  0  0  0  0
    3.1667   -1.9275    2.2446 H   0  0  0  0  0  0  0  0  0  0  0  0
    5.1081   -1.1124    3.0501 H   0  0  0  0  0  0  0  0  0  0  0  0
    5.8554    0.3511    2.7813 H   0  0  0  0  0  0  0  0  0  0  0  0
    5.4977    0.4310   -0.5111 H   0  0  0  0  0  0  0  0  0  0  0  0
    6.7797    0.4532    0.5516 H   0  0  0  0  0  0  0  0  0  0  0  0
  1  2  1  0
  2  3  1  0
  3  4  2  0
  4  5  1  0
  5  6  2  0
  6  7  1  0
  7  8  2  0
  8  9  1  0
  7 10  1  0
 10 11  1  0
  5 12  1  0
 12 13  2  0
 12 14  1  0
 14 15  1  0
 15 16  1  0
 16 17  1  0
 17 18  1  0
 18 19  1  0
 19 20  2  3
 20 21  1  0
 20 22  1  0
  8  3  1  0
  1 23  1  0
  1 24  1  0
  1 25  1  0
  4 26  1  0
  6 27  1  0
  9 28  1  0
 11 29  1  0
 11 30  1  0
 11 31  1  0
 15 32  1  0
 15 33  1  0
 16 34  1  0
 16 35  1  0
 17 36  1  0
 17 37  1  0
 18 38  1  0
 18 39  1  0
 21 40  1  0
 21 41  1  0
 22 42  1  0
 22 43  1  0
M  END
$$$$
leonurine.sdf
     RDKit          3D

 43 43  0  0  0  0  0  0  0  0999 V2000
   -3.8025    5.0157   -0.3994 C   0  0  0  0  0  0  0  0  0  0  0  0
   -4.2897    3.9001   -1.1318 O   0  0  0  0  0  0  0  0  0  0  0  0
   -3.6316    2.7089   -0.9837 C   0  0  0  0  0  0  0  0  0  0  0  0
   -2.5155    2.5032   -0.1720 C   0  0  0  0  0  0  0  0  0  0  0  0
   -1.9143    1.2348   -0.0931 C   0  0  0  0  0  0  0  0  0  0  0  0
   -2.4332    0.1594   -0.8323 C   0  0  0  0  0  0  0  0  0  0  0  0
   -3.5474    0.3511   -1.6463 C   0  0  0  0  0  0  0  0  0  0  0  0
   -4.1338    1.6243   -1.7131 C   0  0  0  0  0  0  0  0  0  0  0  0
   -5.2326    1.8011   -2.5204 O   0  0  0  0  0  0  0  0  0  0  0  0
   -4.1557   -0.6065   -2.4191 O   0  0  0  0  0  0  0  0  0  0  0  0
   -3.5997   -1.9162   -2.3759 C   0  0  0  0  0  0  0  0  0  0  0  0
   -0.7254    1.0864    0.7923 C   0  0  0  0  0  0  0  0  0  0  0  0
   -0.2598    2.0034    1.4499 O   0  0  0  0  0  0  0  0  0  0  0  0
   -0.2553   -0.1841    0.7490 O   0  0  0  0  0  0  0  0  0  0  0  0
    0.8973   -0.4553    1.5660 C   0  0  0  0  0  0  0  0  0  0  0  0
    2.1704   -0.1352    0.7893 C   0  0  0  0  0  0  0  0  0  0  0  0
    3.4496   -0.2778    1.6178 C   0  0  0  0  0  0  0  0  0  0  0  0
    3.6596   -1.6531    2.2500 C   0  0  0  0  0  0  0  0  0  0  0  0
    3.6007   -2.7057    1.2425 N   0  0  0  0  0  0  0  0  0  0  0  0
    4.6445   -3.0190    0.5770 C   0  0  0  0  0  0  0  0  0  0  0  0
    5.8974   -2.5165    0.6170 N   0  0  0  0  0  0  0  0  0  0  0  0
    4.5730   -3.9899   -0.3589 N   0  0  0  0  0  0  0  0  0  0  0  0
   -4.4404    5.8736   -0.6329 H   0  0  0  0  0  0  0  0  0  0  0  0
   -2.7807    5.2697   -0.7001 H   0  0  0  0  0  0  0  0  0  0  0  0
   -3.8657    4.8382    0.6792 H   0  0  0  0  0  0  0  0  0  0  0  0
   -2.0896    3.3138    0.4124 H   0  0  0  0  0  0  0  0  0  0  0  0
   -1.9571   -0.8123   -0.7599 H   0  0  0  0  0  0  0  0  0  0  0  0
   -5.4023    0.9286   -2.9220 H   0  0  0  0  0  0  0  0  0  0  0  0
   -4.1957   -2.5534   -3.0362 H   0  0  0  0  0  0  0  0  0  0  0  0
   -2.5704   -1.9197   -2.7494 H   0  0  0  0  0  0  0  0  0  0  0  0
   -3.6575   -2.3360   -1.3663 H   0  0  0  0  0  0  0  0  0  0  0  0
    0.8548   -1.5206    1.8137 H   0  0  0  0  0  0  0  0  0  0  0  0
    0.8462    0.0980    2.5112 H   0  0  0  0  0  0  0  0  0  0  0  0
    2.2187   -0.7733   -0.1019 H   0  0  0  0  0  0  0  0  0  0  0  0
    2.1175    0.8903    0.4032 H   0  0  0  0  0  0  0  0  0  0  0  0
    3.4449    0.4753    2.4153 H   0  0  0  0  0  0  0  0  0  0  0  0
    4.3032   -0.0394    0.9718 H   0  0  0  0  0  0  0  0  0  0  0  0
    2.8777   -1.8465    2.9929 H   0  0  0  0  0  0  0  0  0  0  0  0
    4.5991   -1.6724    2.8142 H   0  0  0  0  0  0  0  0  0  0  0  0
    6.1012   -1.9498    1.4291 H   0  0  0  0  0  0  0  0  0  0  0  0
    6.6009   -3.2359    0.4940 H   0  0  0  0  0  0  0  0  0  0  0  0
    3.6022   -4.2504   -0.5043 H   0  0  0  0  0  0  0  0  0  0  0  0
    4.9970   -3.7070   -1.2340 H   0  0  0  0  0  0  0  0  0  0  0  0
  1  2  1  0
  2  3  1  0
  3  4  2  0
  4  5  1  0
  5  6  2  0
  6  7  1  0
  7  8  2  0
  8  9  1  0
  7 10  1  0
 10 11  1  0
  5 12  1  0
 12 13  2  0
 12 14  1  0
 14 15  1  0
 15 16  1  0
 16 17  1  0
 17 18  1  0
 18 19  1  0
 19 20  2  3
 20 21  1  0
 20 22  1  0
  8  3  1  0
  1 23  1  0
  1 24  1  0
  1 25  1  0
  4 26  1  0
  6 27  1  0
  9 28  1  0
 11 29  1  0
 11 30  1  0
 11 31  1  0
 15 32  1  0
 15 33  1  0
 16 34  1  0
 16 35  1  0
 17 36  1  0
 17 37  1  0
 18 38  1  0
 18 39  1  0
 21 40  1  0
 21 41  1  0
 22 42  1  0
 22 43  1  0
M  END
$$$$
leonurine.sdf
     RDKit          3D

 43 43  0  0  0  0  0  0  0  0999 V2000
   -4.3412    4.6433    0.1060 C   0  0  0  0  0  0  0  0  0  0  0  0
   -4.6756    3.5726   -0.7709 O   0  0  0  0  0  0  0  0  0  0  0  0
   -3.8174    2.5020   -0.7935 C   0  0  0  0  0  0  0  0  0  0  0  0
   -2.6593    2.3655   -0.0332 C   0  0  0  0  0  0  0  0  0  0  0  0
   -1.8698    1.2102   -0.1559 C   0  0  0  0  0  0  0  0  0  0  0  0
   -2.2434    0.1892   -1.0468 C   0  0  0  0  0  0  0  0  0  0  0  0
   -3.4024    0.3137   -1.8155 C   0  0  0  0  0  0  0  0  0  0  0  0
   -4.1765    1.4727   -1.6763 C   0  0  0  0  0  0  0  0  0  0  0  0
   -5.3224    1.6160   -2.4225 O   0  0  0  0  0  0  0  0  0  0  0  0
   -3.8582   -0.6172   -2.7103 O   0  0  0  0  0  0  0  0  0  0  0  0
   -3.0829   -1.7934   -2.8910 C   0  0  0  0  0  0  0  0  0  0  0  0
   -0.6426    1.1199    0.6834 C   0  0  0  0  0  0  0  0  0  0  0  0
   -0.2869    2.0057    1.4446 O   0  0  0  0  0  0  0  0  0  0  0  0
   -0.0066   -0.0585    0.4759 O   0  0  0  0  0  0  0  0  0  0  0  0
    1.2028   -0.2606    1.2279 C   0  0  0  0  0  0  0  0  0  0  0  0
    2.3916    0.3009    0.4553 C   0  0  0  0  0  0  0  0  0  0  0  0
    3.7113    0.2485    1.2295 C   0  0  0  0  0  0  0  0  0  0  0  0
    4.1138   -1.1392    1.7296 C   0  0  0  0  0  0  0  0  0  0  0  0
    4.1993   -2.0513    0.5951 N   0  0  0  0  0  0  0  0  0  0  0  0
    4.4624   -3.2810    0.8235 C   0  0  0  0  0  0  0  0  0  0  0  0
    4.5280   -4.1572   -0.2013 N   0  0  0  0  0  0  0  0  0  0  0  0
    4.6971   -3.9174    1.9918 N   0  0  0  0  0  0  0  0  0  0  0  0
   -3.3831    5.0953   -0.1710 H   0  0  0  0  0  0  0  0  0  0  0  0
   -4.3371    4.3114    1.1495 H   0  0  0  0  0  0  0  0  0  0  0  0
   -5.1138    5.4114    0.0039 H   0  0  0  0  0  0  0  0  0  0  0  0
   -2.3446    3.1380    0.6624 H   0  0  0  0  0  0  0  0  0  0  0  0
   -1.6192   -0.6941   -1.1280 H   0  0  0  0  0  0  0  0  0  0  0  0
   -5.6902    2.4830   -2.1676 H   0  0  0  0  0  0  0  0  0  0  0  0
   -3.5841   -2.4128   -3.6411 H   0  0  0  0  0  0  0  0  0  0  0  0
   -2.0842   -1.5541   -3.2709 H   0  0  0  0  0  0  0  0  0  0  0  0
   -3.0255   -2.3744   -1.9647 H   0  0  0  0  0  0  0  0  0  0  0  0
    1.3060   -1.3424    1.3598 H   0  0  0  0  0  0  0  0  0  0  0  0
    1.1220    0.1800    2.2286 H   0  0  0  0  0  0  0  0  0  0  0  0
    2.1908    1.3430    0.1773 H   0  0  0  0  0  0  0  0  0  0  0  0
    2.4863   -0.2354   -0.4971 H   0  0  0  0  0  0  0  0  0  0  0  0
    3.6490    0.9258    2.0900 H   0  0  0  0  0  0  0  0  0  0  0  0
    4.5044    0.6397    0.5799 H   0  0  0  0  0  0  0  0  0  0  0  0
    3.3884   -1.4950    2.4702 H   0  0  0  0  0  0  0  0  0  0  0  0
    5.0896   -1.0582    2.2236 H   0  0  0  0  0  0  0  0  0  0  0  0
    3.9972   -5.0001   -0.0198 H   0  0  0  0  0  0  0  0  0  0  0  0
    4.2015   -3.7096   -1.0529 H   0  0  0  0  0  0  0  0  0  0  0  0
    4.9193   -3.2999    2.7620 H   0  0  0  0  0  0  0  0  0  0  0  0
    5.4060   -4.6358    1.8950 H   0  0  0  0  0  0  0  0  0  0  0  0
  1  2  1  0
  2  3  1  0
  3  4  2  0
  4  5  1  0
  5  6  2  0
  6  7  1  0
  7  8  2  0
  8  9  1  0
  7 10  1  0
 10 11  1  0
  5 12  1  0
 12 13  2  0
 12 14  1  0
 14 15  1  0
 15 16  1  0
 16 17  1  0
 17 18  1  0
 18 19  1  0
 19 20  2  3
 20 21  1  0
 20 22  1  0
  8  3  1  0
  1 23  1  0
  1 24  1  0
  1 25  1  0
  4 26  1  0
  6 27  1  0
  9 28  1  0
 11 29  1  0
 11 30  1  0
 11 31  1  0
 15 32  1  0
 15 33  1  0
 16 34  1  0
 16 35  1  0
 17 36  1  0
 17 37  1  0
 18 38  1  0
 18 39  1  0
 21 40  1  0
 21 41  1  0
 22 42  1  0
 22 43  1  0
M  END
$$$$
leonurine.sdf
     RDKit          3D

 43 43  0  0  0  0  0  0  0  0999 V2000
   -3.8322    4.9507   -0.1205 C   0  0  0  0  0  0  0  0  0  0  0  0
   -4.1163    3.8908   -1.0279 O   0  0  0  0  0  0  0  0  0  0  0  0
   -3.4027    2.7301   -0.8642 C   0  0  0  0  0  0  0  0  0  0  0  0
   -2.4311    2.4967    0.1050 C   0  0  0  0  0  0  0  0  0  0  0  0
   -1.7749    1.2561    0.1576 C   0  0  0  0  0  0  0  0  0  0  0  0
   -2.0965    0.2454   -0.7648 C   0  0  0  0  0  0  0  0  0  0  0  0
   -3.0697    0.4661   -1.7413 C   0  0  0  0  0  0  0  0  0  0  0  0
   -3.7108    1.7109   -1.7775 C   0  0  0  0  0  0  0  0  0  0  0  0
   -4.6716    1.9506   -2.7314 O   0  0  0  0  0  0  0  0  0  0  0  0
   -3.4584   -0.4455   -2.6860 O   0  0  0  0  0  0  0  0  0  0  0  0
   -2.8447   -1.7260   -2.6597 C   0  0  0  0  0  0  0  0  0  0  0  0
   -0.7428    1.0646    1.2141 C   0  0  0  0  0  0  0  0  0  0  0  0
   -0.4687    1.9148    2.0459 O   0  0  0  0  0  0  0  0  0  0  0  0
   -0.1721   -0.1595    1.1074 O   0  0  0  0  0  0  0  0  0  0  0  0
    0.8573   -0.4216    2.0708 C   0  0  0  0  0  0  0  0  0  0  0  0
    1.3929   -1.8335    1.8514 C   0  0  0  0  0  0  0  0  0  0  0  0
    1.9205   -2.1020    0.4356 C   0  0  0  0  0  0  0  0  0  0  0  0
    3.0202   -1.1484   -0.0291 C   0  0  0  0  0  0  0  0  0  0  0  0
    4.1291   -1.1337    0.9179 N   0  0  0  0  0  0  0  0  0  0  0  0
    5.0661   -1.9963    0.8302 C   0  0  0  0  0  0  0  0  0  0  0  0
    5.2438   -3.0178   -0.0353 N   0  0  0  0  0  0  0  0  0  0  0  0
    6.0810   -1.9718    1.7206 N   0  0  0  0  0  0  0  0  0  0  0  0
   -4.0642    4.6606    0.9095 H   0  0  0  0  0  0  0  0  0  0  0  0
   -4.4771    5.7951   -0.3820 H   0  0  0  0  0  0  0  0  0  0  0  0
   -2.7931    5.2829   -0.2154 H   0  0  0  0  0  0  0  0  0  0  0  0
   -2.1613    3.2580    0.8313 H   0  0  0  0  0  0  0  0  0  0  0  0
   -1.5789   -0.7059   -0.7065 H   0  0  0  0  0  0  0  0  0  0  0  0
   -4.9753    2.8634   -2.5688 H   0  0  0  0  0  0  0  0  0  0  0  0
   -3.2789   -2.3222   -3.4681 H   0  0  0  0  0  0  0  0  0  0  0  0
   -1.7678   -1.6512   -2.8434 H   0  0  0  0  0  0  0  0  0  0  0  0
   -3.0505   -2.2438   -1.7171 H   0  0  0  0  0  0  0  0  0  0  0  0
    0.4348   -0.3520    3.0802 H   0  0  0  0  0  0  0  0  0  0  0  0
    1.6577    0.3199    1.9722 H   0  0  0  0  0  0  0  0  0  0  0  0
    2.1756   -2.0411    2.5899 H   0  0  0  0  0  0  0  0  0  0  0  0
    0.5824   -2.5489    2.0396 H   0  0  0  0  0  0  0  0  0  0  0  0
    1.0901   -2.0543   -0.2793 H   0  0  0  0  0  0  0  0  0  0  0  0
    2.2945   -3.1327    0.4024 H   0  0  0  0  0  0  0  0  0  0  0  0
    3.3447   -1.4093   -1.0428 H   0  0  0  0  0  0  0  0  0  0  0  0
    2.6247   -0.1299   -0.1107 H   0  0  0  0  0  0  0  0  0  0  0  0
    4.6679   -2.9725   -0.8649 H   0  0  0  0  0  0  0  0  0  0  0  0
    6.2195   -3.1400   -0.2817 H   0  0  0  0  0  0  0  0  0  0  0  0
    5.8672   -1.3095    2.4607 H   0  0  0  0  0  0  0  0  0  0  0  0
    6.2692   -2.8872    2.1106 H   0  0  0  0  0  0  0  0  0  0  0  0
  1  2  1  0
  2  3  1  0
  3  4  2  0
  4  5  1  0
  5  6  2  0
  6  7  1  0
  7  8  2  0
  8  9  1  0
  7 10  1  0
 10 11  1  0
  5 12  1  0
 12 13  2  0
 12 14  1  0
 14 15  1  0
 15 16  1  0
 16 17  1  0
 17 18  1  0
 18 19  1  0
 19 20  2  3
 20 21  1  0
 20 22  1  0
  8  3  1  0
  1 23  1  0
  1 24  1  0
  1 25  1  0
  4 26  1  0
  6 27  1  0
  9 28  1  0
 11 29  1  0
 11 30  1  0
 11 31  1  0
 15 32  1  0
 15 33  1  0
 16 34  1  0
 16 35  1  0
 17 36  1  0
 17 37  1  0
 18 38  1  0
 18 39  1  0
 21 40  1  0
 21 41  1  0
 22 42  1  0
 22 43  1  0
M  END
$$$$
leonurine.sdf
     RDKit          3D

 43 43  0  0  0  0  0  0  0  0999 V2000
   -1.4403    4.2860    0.0439 C   0  0  0  0  0  0  0  0  0  0  0  0
   -2.4554    3.7858   -0.8140 O   0  0  0  0  0  0  0  0  0  0  0  0
   -2.6607    2.4322   -0.8360 C   0  0  0  0  0  0  0  0  0  0  0  0
   -1.9297    1.4967   -0.1013 C   0  0  0  0  0  0  0  0  0  0  0  0
   -2.2271    0.1266   -0.2019 C   0  0  0  0  0  0  0  0  0  0  0  0
   -3.2633   -0.3123   -1.0425 C   0  0  0  0  0  0  0  0  0  0  0  0
   -3.9991    0.6100   -1.7813 C   0  0  0  0  0  0  0  0  0  0  0  0
   -3.6885    1.9733   -1.6697 C   0  0  0  0  0  0  0  0  0  0  0  0
   -4.4202    2.8770   -2.4033 O   0  0  0  0  0  0  0  0  0  0  0  0
   -5.0313    0.3184   -2.6371 O   0  0  0  0  0  0  0  0  0  0  0  0
   -5.3781   -1.0554   -2.7781 C   0  0  0  0  0  0  0  0  0  0  0  0
   -1.4725   -0.9065    0.5609 C   0  0  0  0  0  0  0  0  0  0  0  0
   -1.7301   -2.0982    0.5059 O   0  0  0  0  0  0  0  0  0  0  0  0
   -0.4842   -0.3348    1.2911 O   0  0  0  0  0  0  0  0  0  0  0  0
    0.3314   -1.2361    2.0566 C   0  0  0  0  0  0  0  0  0  0  0  0
    1.4733   -1.7985    1.2136 C   0  0  0  0  0  0  0  0  0  0  0  0
    2.3727   -0.6931    0.6474 C   0  0  0  0  0  0  0  0  0  0  0  0
    3.5431   -1.2543   -0.1585 C   0  0  0  0  0  0  0  0  0  0  0  0
    4.4479   -1.9993    0.7113 N   0  0  0  0  0  0  0  0  0  0  0  0
    5.4505   -1.4167    1.2453 C   0  0  0  0  0  0  0  0  0  0  0  0
    6.2999   -2.1241    2.0208 N   0  0  0  0  0  0  0  0  0  0  0  0
    5.8547   -0.1297    1.1787 N   0  0  0  0  0  0  0  0  0  0  0  0
   -1.6556    4.0497    1.0911 H   0  0  0  0  0  0  0  0  0  0  0  0
   -0.4545    3.9121   -0.2518 H   0  0  0  0  0  0  0  0  0  0  0  0
   -1.4255    5.3758   -0.0546 H   0  0  0  0  0  0  0  0  0  0  0  0
   -1.1261    1.8153    0.5535 H   0  0  0  0  0  0  0  0  0  0  0  0
   -3.4701   -1.3771   -1.0996 H   0  0  0  0  0  0  0  0  0  0  0  0
   -5.0682    2.3428   -2.9000 H   0  0  0  0  0  0  0  0  0  0  0  0
   -6.2096   -1.1182   -3.4867 H   0  0  0  0  0  0  0  0  0  0  0  0
   -4.5439   -1.6320   -3.1912 H   0  0  0  0  0  0  0  0  0  0  0  0
   -5.7189   -1.4757   -1.8262 H   0  0  0  0  0  0  0  0  0  0  0  0
    0.7346   -0.6638    2.8992 H   0  0  0  0  0  0  0  0  0  0  0  0
   -0.2746   -2.0432    2.4852 H   0  0  0  0  0  0  0  0  0  0  0  0
    1.0636   -2.3799    0.3793 H   0  0  0  0  0  0  0  0  0  0  0  0
    2.0601   -2.4847    1.8344 H   0  0  0  0  0  0  0  0  0  0  0  0
    1.7821   -0.0427   -0.0087 H   0  0  0  0  0  0  0  0  0  0  0  0
    2.7479   -0.0685    1.4669 H   0  0  0  0  0  0  0  0  0  0  0  0
    4.0553   -0.4473   -0.6950 H   0  0  0  0  0  0  0  0  0  0  0  0
    3.1697   -1.9345   -0.9329 H   0  0  0  0  0  0  0  0  0  0  0  0
    7.2674   -1.9625    1.7685 H   0  0  0  0  0  0  0  0  0  0  0  0
    6.0800   -3.1132    1.9427 H   0  0  0  0  0  0  0  0  0  0  0  0
    5.1434    0.5114    0.8530 H   0  0  0  0  0  0  0  0  0  0  0  0
    6.2499    0.1890    2.0560 H   0  0  0  0  0  0  0  0  0  0  0  0
  1  2  1  0
  2  3  1  0
  3  4  2  0
  4  5  1  0
  5  6  2  0
  6  7  1  0
  7  8  2  0
  8  9  1  0
  7 10  1  0
 10 11  1  0
  5 12  1  0
 12 13  2  0
 12 14  1  0
 14 15  1  0
 15 16  1  0
 16 17  1  0
 17 18  1  0
 18 19  1  0
 19 20  2  3
 20 21  1  0
 20 22  1  0
  8  3  1  0
  1 23  1  0
  1 24  1  0
  1 25  1  0
  4 26  1  0
  6 27  1  0
  9 28  1  0
 11 29  1  0
 11 30  1  0
 11 31  1  0
 15 32  1  0
 15 33  1  0
 16 34  1  0
 16 35  1  0
 17 36  1  0
 17 37  1  0
 18 38  1  0
 18 39  1  0
 21 40  1  0
 21 41  1  0
 22 42  1  0
 22 43  1  0
M  END
$$$$
leonurine.sdf
     RDKit          3D

 43 43  0  0  0  0  0  0  0  0999 V2000
   -2.8661    5.2305   -0.6361 C   0  0  0  0  0  0  0  0  0  0  0  0
   -3.7972    4.1816   -0.8626 O   0  0  0  0  0  0  0  0  0  0  0  0
   -3.3410    2.8955   -0.7548 C   0  0  0  0  0  0  0  0  0  0  0  0
   -2.0321    2.5313   -0.4371 C   0  0  0  0  0  0  0  0  0  0  0  0
   -1.6687    1.1759   -0.3521 C   0  0  0  0  0  0  0  0  0  0  0  0
   -2.6228    0.1723   -0.5868 C   0  0  0  0  0  0  0  0  0  0  0  0
   -3.9333    0.5223   -0.9048 C   0  0  0  0  0  0  0  0  0  0  0  0
   -4.2775    1.8804   -0.9852 C   0  0  0  0  0  0  0  0  0  0  0  0
   -5.5739    2.2131   -1.2998 O   0  0  0  0  0  0  0  0  0  0  0  0
   -4.9622   -0.3505   -1.1574 O   0  0  0  0  0  0  0  0  0  0  0  0
   -4.6592   -1.7396   -1.0869 C   0  0  0  0  0  0  0  0  0  0  0  0
   -0.2540    0.8589   -0.0088 C   0  0  0  0  0  0  0  0  0  0  0  0
    0.5914    1.7133    0.2036 O   0  0  0  0  0  0  0  0  0  0  0  0
   -0.0619   -0.4823    0.0231 O   0  0  0  0  0  0  0  0  0  0  0  0
    1.2701   -0.9212    0.3521 C   0  0  0  0  0  0  0  0  0  0  0  0
    2.1042   -1.0213   -0.9213 C   0  0  0  0  0  0  0  0  0  0  0  0
    3.5885   -1.3101   -0.6844 C   0  0  0  0  0  0  0  0  0  0  0  0
    3.8774   -2.6693   -0.0490 C   0  0  0  0  0  0  0  0  0  0  0  0
    3.5327   -2.6721    1.3686 N   0  0  0  0  0  0  0  0  0  0  0  0
    4.3686   -2.2501    2.2371 C   0  0  0  0  0  0  0  0  0  0  0  0
    5.6120   -1.7452    2.0878 N   0  0  0  0  0  0  0  0  0  0  0  0
    4.0310   -2.2496    3.5445 N   0  0  0  0  0  0  0  0  0  0  0  0
   -2.4785    5.2002    0.3875 H   0  0  0  0  0  0  0  0  0  0  0  0
   -2.0530    5.2019   -1.3689 H   0  0  0  0  0  0  0  0  0  0  0  0
   -3.3946    6.1802   -0.7633 H   0  0  0  0  0  0  0  0  0  0  0  0
   -1.2704    3.2828   -0.2499 H   0  0  0  0  0  0  0  0  0  0  0  0
   -2.3258   -0.8683   -0.5169 H   0  0  0  0  0  0  0  0  0  0  0  0
   -6.0389    1.3634   -1.4152 H   0  0  0  0  0  0  0  0  0  0  0  0
   -5.5762   -2.2928   -1.3115 H   0  0  0  0  0  0  0  0  0  0  0  0
   -3.9102   -2.0181   -1.8355 H   0  0  0  0  0  0  0  0  0  0  0  0
   -4.3377   -2.0223   -0.0791 H   0  0  0  0  0  0  0  0  0  0  0  0
    1.1541   -1.9047    0.8162 H   0  0  0  0  0  0  0  0  0  0  0  0
    1.7291   -0.2574    1.0941 H   0  0  0  0  0  0  0  0  0  0  0  0
    1.6714   -1.7884   -1.5758 H   0  0  0  0  0  0  0  0  0  0  0  0
    2.0208   -0.0828   -1.4836 H   0  0  0  0  0  0  0  0  0  0  0  0
    4.0886   -1.2818   -1.6607 H   0  0  0  0  0  0  0  0  0  0  0  0
    4.0271   -0.5030   -0.0859 H   0  0  0  0  0  0  0  0  0  0  0  0
    4.9258   -2.9463   -0.2081 H   0  0  0  0  0  0  0  0  0  0  0  0
    3.2900   -3.4473   -0.5504 H   0  0  0  0  0  0  0  0  0  0  0  0
    6.2350   -2.0349    2.8331 H   0  0  0  0  0  0  0  0  0  0  0  0
    6.0322   -1.9076    1.1828 H   0  0  0  0  0  0  0  0  0  0  0  0
    3.0452   -2.4716    3.6445 H   0  0  0  0  0  0  0  0  0  0  0  0
    4.2399   -1.3650    3.9919 H   0  0  0  0  0  0  0  0  0  0  0  0
  1  2  1  0
  2  3  1  0
  3  4  2  0
  4  5  1  0
  5  6  2  0
  6  7  1  0
  7  8  2  0
  8  9  1  0
  7 10  1  0
 10 11  1  0
  5 12  1  0
 12 13  2  0
 12 14  1  0
 14 15  1  0
 15 16  1  0
 16 17  1  0
 17 18  1  0
 18 19  1  0
 19 20  2  3
 20 21  1  0
 20 22  1  0
  8  3  1  0
  1 23  1  0
  1 24  1  0
  1 25  1  0
  4 26  1  0
  6 27  1  0
  9 28  1  0
 11 29  1  0
 11 30  1  0
 11 31  1  0
 15 32  1  0
 15 33  1  0
 16 34  1  0
 16 35  1  0
 17 36  1  0
 17 37  1  0
 18 38  1  0
 18 39  1  0
 21 40  1  0
 21 41  1  0
 22 42  1  0
 22 43  1  0
M  END
$$$$
leonurine.sdf
     RDKit          3D

 43 43  0  0  0  0  0  0  0  0999 V2000
   -3.9833    4.8509    0.6974 C   0  0  0  0  0  0  0  0  0  0  0  0
   -4.3790    3.9871   -0.3589 O   0  0  0  0  0  0  0  0  0  0  0  0
   -3.7167    2.7957   -0.4845 C   0  0  0  0  0  0  0  0  0  0  0  0
   -2.6975    2.3504    0.3580 C   0  0  0  0  0  0  0  0  0  0  0  0
   -2.0843    1.1043    0.1396 C   0  0  0  0  0  0  0  0  0  0  0  0
   -2.4897    0.2953   -0.9343 C   0  0  0  0  0  0  0  0  0  0  0  0
   -3.5058    0.7284   -1.7834 C   0  0  0  0  0  0  0  0  0  0  0  0
   -4.1091    1.9733   -1.5475 C   0  0  0  0  0  0  0  0  0  0  0  0
   -5.1119    2.3888   -2.3914 O   0  0  0  0  0  0  0  0  0  0  0  0
   -3.9990    0.0429   -2.8656 O   0  0  0  0  0  0  0  0  0  0  0  0
   -3.4015   -1.2159   -3.1562 C   0  0  0  0  0  0  0  0  0  0  0  0
   -1.0032    0.6913    1.0775 C   0  0  0  0  0  0  0  0  0  0  0  0
   -0.5843    1.4049    1.9748 O   0  0  0  0  0  0  0  0  0  0  0  0
   -0.5760   -0.5629    0.7898 O   0  0  0  0  0  0  0  0  0  0  0  0
    0.4826   -1.0683    1.6194 C   0  0  0  0  0  0  0  0  0  0  0  0
    1.8337   -0.6730    1.0334 C   0  0  0  0  0  0  0  0  0  0  0  0
    2.9888   -1.2053    1.8823 C   0  0  0  0  0  0  0  0  0  0  0  0
    4.3531   -0.8258    1.3094 C   0  0  0  0  0  0  0  0  0  0  0  0
    4.5646   -1.4858    0.0248 N   0  0  0  0  0  0  0  0  0  0  0  0
    5.1653   -2.6110   -0.0278 C   0  0  0  0  0  0  0  0  0  0  0  0
    5.3868   -3.1951   -1.2251 N   0  0  0  0  0  0  0  0  0  0  0  0
    5.6595   -3.3887    0.9597 N   0  0  0  0  0  0  0  0  0  0  0  0
   -4.1582    4.3863    1.6734 H   0  0  0  0  0  0  0  0  0  0  0  0
   -2.9382    5.1582    0.5864 H   0  0  0  0  0  0  0  0  0  0  0  0
   -4.6021    5.7517    0.6426 H   0  0  0  0  0  0  0  0  0  0  0  0
   -2.3589    2.9527    1.1961 H   0  0  0  0  0  0  0  0  0  0  0  0
   -2.0026   -0.6608   -1.0912 H   0  0  0  0  0  0  0  0  0  0  0  0
   -5.2131    1.6729   -3.0461 H   0  0  0  0  0  0  0  0  0  0  0  0
   -2.3378   -1.1031   -3.3901 H   0  0  0  0  0  0  0  0  0  0  0  0
   -3.8962   -1.6230   -4.0433 H   0  0  0  0  0  0  0  0  0  0  0  0
   -3.5548   -1.9236   -2.3349 H   0  0  0  0  0  0  0  0  0  0  0  0
    0.3708   -0.7272    2.6555 H   0  0  0  0  0  0  0  0  0  0  0  0
    0.3828   -2.1592    1.6303 H   0  0  0  0  0  0  0  0  0  0  0  0
    1.8994   -1.0514    0.0061 H   0  0  0  0  0  0  0  0  0  0  0  0
    1.8989    0.4190    0.9551 H   0  0  0  0  0  0  0  0  0  0  0  0
    2.9079   -0.7934    2.8954 H   0  0  0  0  0  0  0  0  0  0  0  0
    2.9100   -2.2955    1.9709 H   0  0  0  0  0  0  0  0  0  0  0  0
    5.1450   -1.0586    2.0306 H   0  0  0  0  0  0  0  0  0  0  0  0
    4.4036    0.2581    1.1538 H   0  0  0  0  0  0  0  0  0  0  0  0
    6.3460   -3.5054   -1.3230 H   0  0  0  0  0  0  0  0  0  0  0  0
    5.1560   -2.5384   -1.9654 H   0  0  0  0  0  0  0  0  0  0  0  0
    5.5428   -4.3755    0.7604 H   0  0  0  0  0  0  0  0  0  0  0  0
    5.3055   -3.1652    1.8806 H   0  0  0  0  0  0  0  0  0  0  0  0
  1  2  1  0
  2  3  1  0
  3  4  2  0
  4  5  1  0
  5  6  2  0
  6  7  1  0
  7  8  2  0
  8  9  1  0
  7 10  1  0
 10 11  1  0
  5 12  1  0
 12 13  2  0
 12 14  1  0
 14 15  1  0
 15 16  1  0
 16 17  1  0
 17 18  1  0
 18 19  1  0
 19 20  2  3
 20 21  1  0
 20 22  1  0
  8  3  1  0
  1 23  1  0
  1 24  1  0
  1 25  1  0
  4 26  1  0
  6 27  1  0
  9 28  1  0
 11 29  1  0
 11 30  1  0
 11 31  1  0
 15 32  1  0
 15 33  1  0
 16 34  1  0
 16 35  1  0
 17 36  1  0
 17 37  1  0
 18 38  1  0
 18 39  1  0
 21 40  1  0
 21 41  1  0
 22 42  1  0
 22 43  1  0
M  END
$$$$
leonurine.sdf
     RDKit          3D

 43 43  0  0  0  0  0  0  0  0999 V2000
   -2.5280    4.6027    0.2236 C   0  0  0  0  0  0  0  0  0  0  0  0
   -3.6150    3.8768   -0.3399 O   0  0  0  0  0  0  0  0  0  0  0  0
   -3.3879    2.5590   -0.6494 C   0  0  0  0  0  0  0  0  0  0  0  0
   -2.1891    1.8715   -0.4720 C   0  0  0  0  0  0  0  0  0  0  0  0
   -2.0998    0.5179   -0.8354 C   0  0  0  0  0  0  0  0  0  0  0  0
   -3.2156   -0.1451   -1.3756 C   0  0  0  0  0  0  0  0  0  0  0  0
   -4.4218    0.5319   -1.5586 C   0  0  0  0  0  0  0  0  0  0  0  0
   -4.4905    1.8813   -1.1917 C   0  0  0  0  0  0  0  0  0  0  0  0
   -5.6677    2.5707   -1.3627 O   0  0  0  0  0  0  0  0  0  0  0  0
   -5.5637   -0.0181   -2.0756 O   0  0  0  0  0  0  0  0  0  0  0  0
   -5.5259   -1.3902   -2.4416 C   0  0  0  0  0  0  0  0  0  0  0  0
   -0.8441   -0.2658   -0.6680 C   0  0  0  0  0  0  0  0  0  0  0  0
   -0.7462   -1.4480   -0.9557 O   0  0  0  0  0  0  0  0  0  0  0  0
    0.1433    0.5137   -0.1612 O   0  0  0  0  0  0  0  0  0  0  0  0
    1.4067   -0.1382    0.0500 C   0  0  0  0  0  0  0  0  0  0  0  0
    1.4472   -0.7407    1.4512 C   0  0  0  0  0  0  0  0  0  0  0  0
    2.7101   -1.5542    1.7323 C   0  0  0  0  0  0  0  0  0  0  0  0
    3.9949   -0.7319    1.6533 C   0  0  0  0  0  0  0  0  0  0  0  0
    5.1190   -1.5293    2.1331 N   0  0  0  0  0  0  0  0  0  0  0  0
    5.7983   -2.2367    1.3155 C   0  0  0  0  0  0  0  0  0  0  0  0
    5.6467   -2.4287   -0.0131 N   0  0  0  0  0  0  0  0  0  0  0  0
    6.8598   -2.9419    1.7619 N   0  0  0  0  0  0  0  0  0  0  0  0
   -2.8721    5.6238    0.4146 H   0  0  0  0  0  0  0  0  0  0  0  0
   -2.2193    4.1704    1.1810 H   0  0  0  0  0  0  0  0  0  0  0  0
   -1.6875    4.6595   -0.4759 H   0  0  0  0  0  0  0  0  0  0  0  0
   -1.3198    2.3678   -0.0552 H   0  0  0  0  0  0  0  0  0  0  0  0
   -3.1140   -1.1924   -1.6456 H   0  0  0  0  0  0  0  0  0  0  0  0
   -5.4882    3.4749   -1.0440 H   0  0  0  0  0  0  0  0  0  0  0  0
   -6.5144   -1.6618   -2.8245 H   0  0  0  0  0  0  0  0  0  0  0  0
   -4.7998   -1.5653   -3.2422 H   0  0  0  0  0  0  0  0  0  0  0  0
   -5.3196   -2.0252   -1.5737 H   0  0  0  0  0  0  0  0  0  0  0  0
    2.1739    0.6351   -0.0569 H   0  0  0  0  0  0  0  0  0  0  0  0
    1.5995   -0.8909   -0.7236 H   0  0  0  0  0  0  0  0  0  0  0  0
    0.5729   -1.3872    1.5959 H   0  0  0  0  0  0  0  0  0  0  0  0
    1.3425    0.0614    2.1926 H   0  0  0  0  0  0  0  0  0  0  0  0
    2.6229   -1.9918    2.7350 H   0  0  0  0  0  0  0  0  0  0  0  0
    2.7643   -2.3987    1.0346 H   0  0  0  0  0  0  0  0  0  0  0  0
    3.9080    0.1478    2.3016 H   0  0  0  0  0  0  0  0  0  0  0  0
    4.1686   -0.3472    0.6424 H   0  0  0  0  0  0  0  0  0  0  0  0
    4.7325   -2.1772   -0.3651 H   0  0  0  0  0  0  0  0  0  0  0  0
    5.8804   -3.3774   -0.2843 H   0  0  0  0  0  0  0  0  0  0  0  0
    7.6801   -2.8030    1.1846 H   0  0  0  0  0  0  0  0  0  0  0  0
    7.0586   -2.6794    2.7231 H   0  0  0  0  0  0  0  0  0  0  0  0
  1  2  1  0
  2  3  1  0
  3  4  2  0
  4  5  1  0
  5  6  2  0
  6  7  1  0
  7  8  2  0
  8  9  1  0
  7 10  1  0
 10 11  1  0
  5 12  1  0
 12 13  2  0
 12 14  1  0
 14 15  1  0
 15 16  1  0
 16 17  1  0
 17 18  1  0
 18 19  1  0
 19 20  2  3
 20 21  1  0
 20 22  1  0
  8  3  1  0
  1 23  1  0
  1 24  1  0
  1 25  1  0
  4 26  1  0
  6 27  1  0
  9 28  1  0
 11 29  1  0
 11 30  1  0
 11 31  1  0
 15 32  1  0
 15 33  1  0
 16 34  1  0
 16 35  1  0
 17 36  1  0
 17 37  1  0
 18 38  1  0
 18 39  1  0
 21 40  1  0
 21 41  1  0
 22 42  1  0
 22 43  1  0
M  END
$$$$
leonurine.sdf
     RDKit          3D

 43 43  0  0  0  0  0  0  0  0999 V2000
   -3.0292    5.2187   -0.0092 C   0  0  0  0  0  0  0  0  0  0  0  0
   -3.9413    4.2514   -0.5101 O   0  0  0  0  0  0  0  0  0  0  0  0
   -3.4857    2.9696   -0.6620 C   0  0  0  0  0  0  0  0  0  0  0  0
   -2.1891    2.5390   -0.3791 C   0  0  0  0  0  0  0  0  0  0  0  0
   -1.8249    1.1951   -0.5730 C   0  0  0  0  0  0  0  0  0  0  0  0
   -2.7659    0.2697   -1.0530 C   0  0  0  0  0  0  0  0  0  0  0  0
   -4.0642    0.6867   -1.3391 C   0  0  0  0  0  0  0  0  0  0  0  0
   -4.4089    2.0325   -1.1413 C   0  0  0  0  0  0  0  0  0  0  0  0
   -5.6928    2.4320   -1.4282 O   0  0  0  0  0  0  0  0  0  0  0  0
   -5.0800   -0.1063   -1.8117 O   0  0  0  0  0  0  0  0  0  0  0  0
   -4.7810   -1.4828   -2.0156 C   0  0  0  0  0  0  0  0  0  0  0  0
   -0.4239    0.8053   -0.2509 C   0  0  0  0  0  0  0  0  0  0  0  0
    0.4049    1.5835    0.1931 O   0  0  0  0  0  0  0  0  0  0  0  0
   -0.2173   -0.5082   -0.5191 O   0  0  0  0  0  0  0  0  0  0  0  0
    1.1041   -1.0000   -0.2391 C   0  0  0  0  0  0  0  0  0  0  0  0
    1.1885   -1.4541    1.2152 C   0  0  0  0  0  0  0  0  0  0  0  0
    2.5270   -2.0982    1.5725 C   0  0  0  0  0  0  0  0  0  0  0  0
    3.6914   -1.1089    1.5739 C   0  0  0  0  0  0  0  0  0  0  0  0
    4.8910   -1.7792    2.0665 N   0  0  0  0  0  0  0  0  0  0  0  0
    5.7277   -2.2885    1.2482 C   0  0  0  0  0  0  0  0  0  0  0  0
    5.7035   -2.3619   -0.1002 N   0  0  0  0  0  0  0  0  0  0  0  0
    6.8513   -2.8723    1.7178 N   0  0  0  0  0  0  0  0  0  0  0  0
   -3.5574    6.1749    0.0552 H   0  0  0  0  0  0  0  0  0  0  0  0
   -2.6902    4.9576    0.9987 H   0  0  0  0  0  0  0  0  0  0  0  0
   -2.1821    5.3521   -0.6900 H   0  0  0  0  0  0  0  0  0  0  0  0
   -1.4379    3.2294   -0.0057 H   0  0  0  0  0  0  0  0  0  0  0  0
   -2.4694   -0.7635   -1.1951 H   0  0  0  0  0  0  0  0  0  0  0  0
   -6.1516    1.6295   -1.7392 H   0  0  0  0  0  0  0  0  0  0  0  0
   -4.0028   -1.6085   -2.7756 H   0  0  0  0  0  0  0  0  0  0  0  0
   -5.6886   -1.9703   -2.3842 H   0  0  0  0  0  0  0  0  0  0  0  0
   -4.4999   -1.9687   -1.0754 H   0  0  0  0  0  0  0  0  0  0  0  0
    1.2714   -1.8516   -0.9074 H   0  0  0  0  0  0  0  0  0  0  0  0
    1.8591   -0.2463   -0.4877 H   0  0  0  0  0  0  0  0  0  0  0  0
    0.3838   -2.1765    1.4027 H   0  0  0  0  0  0  0  0  0  0  0  0
    0.9856   -0.6104    1.8857 H   0  0  0  0  0  0  0  0  0  0  0  0
    2.7374   -2.9257    0.8840 H   0  0  0  0  0  0  0  0  0  0  0  0
    2.4397   -2.5452    2.5712 H   0  0  0  0  0  0  0  0  0  0  0  0
    3.4670   -0.2791    2.2542 H   0  0  0  0  0  0  0  0  0  0  0  0
    3.8430   -0.6575    0.5880 H   0  0  0  0  0  0  0  0  0  0  0  0
    4.7922   -2.2032   -0.5076 H   0  0  0  0  0  0  0  0  0  0  0  0
    6.1022   -3.2304   -0.4381 H   0  0  0  0  0  0  0  0  0  0  0  0
    7.6784   -2.5467    1.2325 H   0  0  0  0  0  0  0  0  0  0  0  0
    6.9349   -2.6831    2.7129 H   0  0  0  0  0  0  0  0  0  0  0  0
  1  2  1  0
  2  3  1  0
  3  4  2  0
  4  5  1  0
  5  6  2  0
  6  7  1  0
  7  8  2  0
  8  9  1  0
  7 10  1  0
 10 11  1  0
  5 12  1  0
 12 13  2  0
 12 14  1  0
 14 15  1  0
 15 16  1  0
 16 17  1  0
 17 18  1  0
 18 19  1  0
 19 20  2  3
 20 21  1  0
 20 22  1  0
  8  3  1  0
  1 23  1  0
  1 24  1  0
  1 25  1  0
  4 26  1  0
  6 27  1  0
  9 28  1  0
 11 29  1  0
 11 30  1  0
 11 31  1  0
 15 32  1  0
 15 33  1  0
 16 34  1  0
 16 35  1  0
 17 36  1  0
 17 37  1  0
 18 38  1  0
 18 39  1  0
 21 40  1  0
 21 41  1  0
 22 42  1  0
 22 43  1  0
M  END
$$$$
leonurine.sdf
     RDKit          3D

 43 43  0  0  0  0  0  0  0  0999 V2000
   -2.4010    5.0373   -0.3731 C   0  0  0  0  0  0  0  0  0  0  0  0
   -3.2514    4.0967   -1.0206 O   0  0  0  0  0  0  0  0  0  0  0  0
   -2.9812    2.7688   -0.8044 C   0  0  0  0  0  0  0  0  0  0  0  0
   -1.9484    2.2609   -0.0213 C   0  0  0  0  0  0  0  0  0  0  0  0
   -1.7859    0.8722    0.1140 C   0  0  0  0  0  0  0  0  0  0  0  0
   -2.6638   -0.0097   -0.5397 C   0  0  0  0  0  0  0  0  0  0  0  0
   -3.7038    0.4866   -1.3282 C   0  0  0  0  0  0  0  0  0  0  0  0
   -3.8475    1.8746   -1.4503 C   0  0  0  0  0  0  0  0  0  0  0  0
   -4.8639    2.3852   -2.2227 O   0  0  0  0  0  0  0  0  0  0  0  0
   -4.6122   -0.2801   -2.0079 O   0  0  0  0  0  0  0  0  0  0  0  0
   -4.5090   -1.6912   -1.8842 C   0  0  0  0  0  0  0  0  0  0  0  0
   -0.6596    0.3881    0.9606 C   0  0  0  0  0  0  0  0  0  0  0  0
    0.1284    1.1400    1.5105 O   0  0  0  0  0  0  0  0  0  0  0  0
   -0.6493   -0.9643    1.0088 O   0  0  0  0  0  0  0  0  0  0  0  0
    0.3841   -1.5872    1.7921 C   0  0  0  0  0  0  0  0  0  0  0  0
    1.3310   -2.3509    0.8707 C   0  0  0  0  0  0  0  0  0  0  0  0
    2.1732   -1.4581   -0.0496 C   0  0  0  0  0  0  0  0  0  0  0  0
    3.1783   -0.5685    0.6828 C   0  0  0  0  0  0  0  0  0  0  0  0
    4.1066   -1.3851    1.4599 N   0  0  0  0  0  0  0  0  0  0  0  0
    5.2160   -1.7565    0.9489 C   0  0  0  0  0  0  0  0  0  0  0  0
    5.7283   -1.5482   -0.2833 N   0  0  0  0  0  0  0  0  0  0  0  0
    6.0834   -2.4808    1.6886 N   0  0  0  0  0  0  0  0  0  0  0  0
   -2.7488    6.0399   -0.6399 H   0  0  0  0  0  0  0  0  0  0  0  0
   -1.3676    4.9394   -0.7216 H   0  0  0  0  0  0  0  0  0  0  0  0
   -2.4639    4.9415    0.7159 H   0  0  0  0  0  0  0  0  0  0  0  0
   -1.2546    2.9179    0.4952 H   0  0  0  0  0  0  0  0  0  0  0  0
   -2.5208   -1.0786   -0.4244 H   0  0  0  0  0  0  0  0  0  0  0  0
   -4.7739    3.3547   -2.1610 H   0  0  0  0  0  0  0  0  0  0  0  0
   -3.5578   -2.0540   -2.2872 H   0  0  0  0  0  0  0  0  0  0  0  0
   -4.6454   -2.0080   -0.8450 H   0  0  0  0  0  0  0  0  0  0  0  0
   -5.3130   -2.1389   -2.4763 H   0  0  0  0  0  0  0  0  0  0  0  0
   -0.1193   -2.3008    2.4537 H   0  0  0  0  0  0  0  0  0  0  0  0
    0.9155   -0.8813    2.4380 H   0  0  0  0  0  0  0  0  0  0  0  0
    0.7362   -3.0162    0.2321 H   0  0  0  0  0  0  0  0  0  0  0  0
    1.9860   -2.9898    1.4736 H   0  0  0  0  0  0  0  0  0  0  0  0
    2.7141   -2.1074   -0.7493 H   0  0  0  0  0  0  0  0  0  0  0  0
    1.5152   -0.8283   -0.6592 H   0  0  0  0  0  0  0  0  0  0  0  0
    3.6960    0.0806   -0.0332 H   0  0  0  0  0  0  0  0  0  0  0  0
    2.6644    0.1123    1.3680 H   0  0  0  0  0  0  0  0  0  0  0  0
    6.2481   -2.3514   -0.6180 H   0  0  0  0  0  0  0  0  0  0  0  0
    5.0464   -1.2533   -0.9700 H   0  0  0  0  0  0  0  0  0  0  0  0
    7.0244   -2.1098    1.6379 H   0  0  0  0  0  0  0  0  0  0  0  0
    5.7669   -2.4981    2.6539 H   0  0  0  0  0  0  0  0  0  0  0  0
  1  2  1  0
  2  3  1  0
  3  4  2  0
  4  5  1  0
  5  6  2  0
  6  7  1  0
  7  8  2  0
  8  9  1  0
  7 10  1  0
 10 11  1  0
  5 12  1  0
 12 13  2  0
 12 14  1  0
 14 15  1  0
 15 16  1  0
 16 17  1  0
 17 18  1  0
 18 19  1  0
 19 20  2  3
 20 21  1  0
 20 22  1  0
  8  3  1  0
  1 23  1  0
  1 24  1  0
  1 25  1  0
  4 26  1  0
  6 27  1  0
  9 28  1  0
 11 29  1  0
 11 30  1  0
 11 31  1  0
 15 32  1  0
 15 33  1  0
 16 34  1  0
 16 35  1  0
 17 36  1  0
 17 37  1  0
 18 38  1  0
 18 39  1  0
 21 40  1  0
 21 41  1  0
 22 42  1  0
 22 43  1  0
M  END
$$$$
leonurine.sdf
     RDKit          3D

 43 43  0  0  0  0  0  0  0  0999 V2000
   -4.0690    5.2314   -0.0219 C   0  0  0  0  0  0  0  0  0  0  0  0
   -4.6824    3.9750   -0.2742 O   0  0  0  0  0  0  0  0  0  0  0  0
   -3.8666    2.8803   -0.3736 C   0  0  0  0  0  0  0  0  0  0  0  0
   -2.4774    2.8993   -0.2447 C   0  0  0  0  0  0  0  0  0  0  0  0
   -1.7334    1.7127   -0.3650 C   0  0  0  0  0  0  0  0  0  0  0  0
   -2.3829    0.4931   -0.6168 C   0  0  0  0  0  0  0  0  0  0  0  0
   -3.7694    0.4603   -0.7479 C   0  0  0  0  0  0  0  0  0  0  0  0
   -4.4956    1.6547   -0.6246 C   0  0  0  0  0  0  0  0  0  0  0  0
   -5.8635    1.6095   -0.7557 O   0  0  0  0  0  0  0  0  0  0  0  0
   -4.5297   -0.6559   -0.9934 O   0  0  0  0  0  0  0  0  0  0  0  0
   -3.8343   -1.8906   -1.1297 C   0  0  0  0  0  0  0  0  0  0  0  0
   -0.2542    1.8048   -0.2159 C   0  0  0  0  0  0  0  0  0  0  0  0
    0.3377    2.8493    0.0048 O   0  0  0  0  0  0  0  0  0  0  0  0
    0.3167    0.5840   -0.3593 O   0  0  0  0  0  0  0  0  0  0  0  0
    1.7448    0.5785   -0.2253 C   0  0  0  0  0  0  0  0  0  0  0  0
    2.2291   -0.8549   -0.4089 C   0  0  0  0  0  0  0  0  0  0  0  0
    3.7503   -0.9528   -0.2920 C   0  0  0  0  0  0  0  0  0  0  0  0
    4.2607   -2.3777   -0.5003 C   0  0  0  0  0  0  0  0  0  0  0  0
    3.7629   -3.2648    0.5457 N   0  0  0  0  0  0  0  0  0  0  0  0
    4.3884   -3.3717    1.6535 C   0  0  0  0  0  0  0  0  0  0  0  0
    5.5124   -2.7646    2.0918 N   0  0  0  0  0  0  0  0  0  0  0  0
    3.9085   -4.1901    2.6147 N   0  0  0  0  0  0  0  0  0  0  0  0
   -3.5514    5.2314    0.9430 H   0  0  0  0  0  0  0  0  0  0  0  0
   -4.8597    5.9863    0.0252 H   0  0  0  0  0  0  0  0  0  0  0  0
   -3.3911    5.5104   -0.8353 H   0  0  0  0  0  0  0  0  0  0  0  0
   -1.9444    3.8255   -0.0497 H   0  0  0  0  0  0  0  0  0  0  0  0
   -1.7937   -0.4131   -0.7063 H   0  0  0  0  0  0  0  0  0  0  0  0
   -6.0771    0.6727   -0.9239 H   0  0  0  0  0  0  0  0  0  0  0  0
   -4.5761   -2.6716   -1.3219 H   0  0  0  0  0  0  0  0  0  0  0  0
   -3.3083   -2.1507   -0.2052 H   0  0  0  0  0  0  0  0  0  0  0  0
   -3.1487   -1.8648   -1.9830 H   0  0  0  0  0  0  0  0  0  0  0  0
    2.1853    1.2273   -0.9915 H   0  0  0  0  0  0  0  0  0  0  0  0
    2.0199    0.9456    0.7704 H   0  0  0  0  0  0  0  0  0  0  0  0
    1.7407   -1.4945    0.3364 H   0  0  0  0  0  0  0  0  0  0  0  0
    1.8990   -1.2273   -1.3867 H   0  0  0  0  0  0  0  0  0  0  0  0
    4.2114   -0.3037   -1.0463 H   0  0  0  0  0  0  0  0  0  0  0  0
    4.0679   -0.5791    0.6887 H   0  0  0  0  0  0  0  0  0  0  0  0
    3.9094   -2.7571   -1.4670 H   0  0  0  0  0  0  0  0  0  0  0  0
    5.3547   -2.3866   -0.5610 H   0  0  0  0  0  0  0  0  0  0  0  0
    6.0618   -2.3194    1.3691 H   0  0  0  0  0  0  0  0  0  0  0  0
    6.0876   -3.3864    2.6487 H   0  0  0  0  0  0  0  0  0  0  0  0
    3.8752   -3.7369    3.5197 H   0  0  0  0  0  0  0  0  0  0  0  0
    2.9844   -4.5180    2.3497 H   0  0  0  0  0  0  0  0  0  0  0  0
  1  2  1  0
  2  3  1  0
  3  4  2  0
  4  5  1  0
  5  6  2  0
  6  7  1  0
  7  8  2  0
  8  9  1  0
  7 10  1  0
 10 11  1  0
  5 12  1  0
 12 13  2  0
 12 14  1  0
 14 15  1  0
 15 16  1  0
 16 17  1  0
 17 18  1  0
 18 19  1  0
 19 20  2  3
 20 21  1  0
 20 22  1  0
  8  3  1  0
  1 23  1  0
  1 24  1  0
  1 25  1  0
  4 26  1  0
  6 27  1  0
  9 28  1  0
 11 29  1  0
 11 30  1  0
 11 31  1  0
 15 32  1  0
 15 33  1  0
 16 34  1  0
 16 35  1  0
 17 36  1  0
 17 37  1  0
 18 38  1  0
 18 39  1  0
 21 40  1  0
 21 41  1  0
 22 42  1  0
 22 43  1  0
M  END
$$$$
leonurine.sdf
     RDKit          3D

 43 43  0  0  0  0  0  0  0  0999 V2000
   -2.7311    4.6991   -0.2885 C   0  0  0  0  0  0  0  0  0  0  0  0
   -3.7761    3.7352   -0.3587 O   0  0  0  0  0  0  0  0  0  0  0  0
   -3.4003    2.4199   -0.4728 C   0  0  0  0  0  0  0  0  0  0  0  0
   -2.0917    1.9443   -0.5242 C   0  0  0  0  0  0  0  0  0  0  0  0
   -1.8534    0.5652   -0.6425 C   0  0  0  0  0  0  0  0  0  0  0  0
   -2.9310   -0.3353   -0.7089 C   0  0  0  0  0  0  0  0  0  0  0  0
   -4.2462    0.1276   -0.6583 C   0  0  0  0  0  0  0  0  0  0  0  0
   -4.4629    1.5058   -0.5404 C   0  0  0  0  0  0  0  0  0  0  0  0
   -5.7496    1.9876   -0.4885 O   0  0  0  0  0  0  0  0  0  0  0  0
   -5.3627   -0.6625   -0.7149 O   0  0  0  0  0  0  0  0  0  0  0  0
   -5.1694   -2.0650   -0.8345 C   0  0  0  0  0  0  0  0  0  0  0  0
   -0.4756    0.0005   -0.7014 C   0  0  0  0  0  0  0  0  0  0  0  0
   -0.2485   -1.1933   -0.8077 O   0  0  0  0  0  0  0  0  0  0  0  0
    0.4466    0.9903   -0.6188 O   0  0  0  0  0  0  0  0  0  0  0  0
    1.8256    0.5796   -0.6473 C   0  0  0  0  0  0  0  0  0  0  0  0
    2.3064    0.2989    0.7727 C   0  0  0  0  0  0  0  0  0  0  0  0
    3.8278    0.1735    0.8997 C   0  0  0  0  0  0  0  0  0  0  0  0
    4.4718   -0.8691   -0.0125 C   0  0  0  0  0  0  0  0  0  0  0  0
    3.8469   -2.1690    0.1817 N   0  0  0  0  0  0  0  0  0  0  0  0
    4.3336   -3.0068    1.0117 C   0  0  0  0  0  0  0  0  0  0  0  0
    3.7505   -4.2155    1.1588 N   0  0  0  0  0  0  0  0  0  0  0  0
    5.3986   -2.9063    1.8360 N   0  0  0  0  0  0  0  0  0  0  0  0
   -2.1272    4.6929   -1.2018 H   0  0  0  0  0  0  0  0  0  0  0  0
   -3.1938    5.6869   -0.2019 H   0  0  0  0  0  0  0  0  0  0  0  0
   -2.1099    4.5429    0.5995 H   0  0  0  0  0  0  0  0  0  0  0  0
   -1.2494    2.6252   -0.4740 H   0  0  0  0  0  0  0  0  0  0  0  0
   -2.7122   -1.3956   -0.7997 H   0  0  0  0  0  0  0  0  0  0  0  0
   -5.6609    2.9556   -0.4081 H   0  0  0  0  0  0  0  0  0  0  0  0
   -6.1561   -2.5372   -0.8655 H   0  0  0  0  0  0  0  0  0  0  0  0
   -4.6363   -2.4657    0.0340 H   0  0  0  0  0  0  0  0  0  0  0  0
   -4.6521   -2.3143   -1.7668 H   0  0  0  0  0  0  0  0  0  0  0  0
    2.3882    1.4154   -1.0770 H   0  0  0  0  0  0  0  0  0  0  0  0
    1.9655   -0.2804   -1.3118 H   0  0  0  0  0  0  0  0  0  0  0  0
    1.9646    1.1047    1.4350 H   0  0  0  0  0  0  0  0  0  0  0  0
    1.8190   -0.6086    1.1494 H   0  0  0  0  0  0  0  0  0  0  0  0
    4.0646   -0.0625    1.9445 H   0  0  0  0  0  0  0  0  0  0  0  0
    4.2848    1.1485    0.6904 H   0  0  0  0  0  0  0  0  0  0  0  0
    4.3464   -0.5791   -1.0617 H   0  0  0  0  0  0  0  0  0  0  0  0
    5.5554   -0.8957    0.1517 H   0  0  0  0  0  0  0  0  0  0  0  0
    4.4212   -4.9717    1.0994 H   0  0  0  0  0  0  0  0  0  0  0  0
    3.0330   -4.3282    0.4469 H   0  0  0  0  0  0  0  0  0  0  0  0
    5.2366   -3.3809    2.7170 H   0  0  0  0  0  0  0  0  0  0  0  0
    5.7092   -1.9569    1.9942 H   0  0  0  0  0  0  0  0  0  0  0  0
  1  2  1  0
  2  3  1  0
  3  4  2  0
  4  5  1  0
  5  6  2  0
  6  7  1  0
  7  8  2  0
  8  9  1  0
  7 10  1  0
 10 11  1  0
  5 12  1  0
 12 13  2  0
 12 14  1  0
 14 15  1  0
 15 16  1  0
 16 17  1  0
 17 18  1  0
 18 19  1  0
 19 20  2  3
 20 21  1  0
 20 22  1  0
  8  3  1  0
  1 23  1  0
  1 24  1  0
  1 25  1  0
  4 26  1  0
  6 27  1  0
  9 28  1  0
 11 29  1  0
 11 30  1  0
 11 31  1  0
 15 32  1  0
 15 33  1  0
 16 34  1  0
 16 35  1  0
 17 36  1  0
 17 37  1  0
 18 38  1  0
 18 39  1  0
 21 40  1  0
 21 41  1  0
 22 42  1  0
 22 43  1  0
M  END
$$$$
leonurine.sdf
     RDKit          3D

 43 43  0  0  0  0  0  0  0  0999 V2000
   -1.9051    4.6249   -0.2259 C   0  0  0  0  0  0  0  0  0  0  0  0
   -3.1853    4.0422   -0.4432 O   0  0  0  0  0  0  0  0  0  0  0  0
   -3.2319    2.6767   -0.5744 C   0  0  0  0  0  0  0  0  0  0  0  0
   -2.1413    1.8113   -0.5184 C   0  0  0  0  0  0  0  0  0  0  0  0
   -2.3379    0.4291   -0.6698 C   0  0  0  0  0  0  0  0  0  0  0  0
   -3.6306   -0.0833   -0.8768 C   0  0  0  0  0  0  0  0  0  0  0  0
   -4.7312    0.7722   -0.9350 C   0  0  0  0  0  0  0  0  0  0  0  0
   -4.5147    2.1470   -0.7825 C   0  0  0  0  0  0  0  0  0  0  0  0
   -5.5827    3.0111   -0.8361 O   0  0  0  0  0  0  0  0  0  0  0  0
   -6.0269    0.3774   -1.1321 O   0  0  0  0  0  0  0  0  0  0  0  0
   -6.2749   -1.0134   -1.2827 C   0  0  0  0  0  0  0  0  0  0  0  0
   -1.2094   -0.5422   -0.6187 C   0  0  0  0  0  0  0  0  0  0  0  0
   -1.3567   -1.7477   -0.7382 O   0  0  0  0  0  0  0  0  0  0  0  0
   -0.0321    0.1016   -0.4218 O   0  0  0  0  0  0  0  0  0  0  0  0
    1.1356   -0.7353   -0.3542 C   0  0  0  0  0  0  0  0  0  0  0  0
    1.3594   -1.1916    1.0847 C   0  0  0  0  0  0  0  0  0  0  0  0
    2.5677   -2.1118    1.2509 C   0  0  0  0  0  0  0  0  0  0  0  0
    3.9025   -1.4178    0.9777 C   0  0  0  0  0  0  0  0  0  0  0  0
    4.9719   -2.3702    1.2586 N   0  0  0  0  0  0  0  0  0  0  0  0
    6.1788   -2.0148    1.0347 C   0  0  0  0  0  0  0  0  0  0  0  0
    6.6693   -0.8445    0.5711 N   0  0  0  0  0  0  0  0  0  0  0  0
    7.1886   -2.8818    1.2608 N   0  0  0  0  0  0  0  0  0  0  0  0
   -1.4647    4.2705    0.7119 H   0  0  0  0  0  0  0  0  0  0  0  0
   -1.2378    4.4376   -1.0736 H   0  0  0  0  0  0  0  0  0  0  0  0
   -2.0411    5.7074   -0.1418 H   0  0  0  0  0  0  0  0  0  0  0  0
   -1.1381    2.1902   -0.3588 H   0  0  0  0  0  0  0  0  0  0  0  0
   -3.7487   -1.1574   -0.9898 H   0  0  0  0  0  0  0  0  0  0  0  0
   -5.2042    3.9007   -0.7069 H   0  0  0  0  0  0  0  0  0  0  0  0
   -5.9882   -1.5656   -0.3816 H   0  0  0  0  0  0  0  0  0  0  0  0
   -5.7693   -1.4109   -2.1688 H   0  0  0  0  0  0  0  0  0  0  0  0
   -7.3514   -1.1477   -1.4262 H   0  0  0  0  0  0  0  0  0  0  0  0
    1.9728   -0.1200   -0.6978 H   0  0  0  0  0  0  0  0  0  0  0  0
    1.0556   -1.5839   -1.0439 H   0  0  0  0  0  0  0  0  0  0  0  0
    1.4581   -0.3141    1.7357 H   0  0  0  0  0  0  0  0  0  0  0  0
    0.4645   -1.7184    1.4385 H   0  0  0  0  0  0  0  0  0  0  0  0
    2.5705   -2.4982    2.2782 H   0  0  0  0  0  0  0  0  0  0  0  0
    2.4625   -2.9852    0.5952 H   0  0  0  0  0  0  0  0  0  0  0  0
    3.9494   -1.0947   -0.0679 H   0  0  0  0  0  0  0  0  0  0  0  0
    3.9953   -0.5384    1.6259 H   0  0  0  0  0  0  0  0  0  0  0  0
    7.5500   -0.6037    1.0119 H   0  0  0  0  0  0  0  0  0  0  0  0
    6.0182   -0.0724    0.6269 H   0  0  0  0  0  0  0  0  0  0  0  0
    7.8291   -2.9337    0.4781 H   0  0  0  0  0  0  0  0  0  0  0  0
    6.8045   -3.8013    1.4605 H   0  0  0  0  0  0  0  0  0  0  0  0
  1  2  1  0
  2  3  1  0
  3  4  2  0
  4  5  1  0
  5  6  2  0
  6  7  1  0
  7  8  2  0
  8  9  1  0
  7 10  1  0
 10 11  1  0
  5 12  1  0
 12 13  2  0
 12 14  1  0
 14 15  1  0
 15 16  1  0
 16 17  1  0
 17 18  1  0
 18 19  1  0
 19 20  2  3
 20 21  1  0
 20 22  1  0
  8  3  1  0
  1 23  1  0
  1 24  1  0
  1 25  1  0
  4 26  1  0
  6 27  1  0
  9 28  1  0
 11 29  1  0
 11 30  1  0
 11 31  1  0
 15 32  1  0
 15 33  1  0
 16 34  1  0
 16 35  1  0
 17 36  1  0
 17 37  1  0
 18 38  1  0
 18 39  1  0
 21 40  1  0
 21 41  1  0
 22 42  1  0
 22 43  1  0
M  END
$$$$
leonurine.sdf
     RDKit          3D

 43 43  0  0  0  0  0  0  0  0999 V2000
   -2.4194    5.1530   -0.5829 C   0  0  0  0  0  0  0  0  0  0  0  0
   -3.4398    4.2099   -0.8934 O   0  0  0  0  0  0  0  0  0  0  0  0
   -3.0991    2.8830   -0.8137 C   0  0  0  0  0  0  0  0  0  0  0  0
   -1.8507    2.3786   -0.4601 C   0  0  0  0  0  0  0  0  0  0  0  0
   -1.6390    0.9906   -0.4186 C   0  0  0  0  0  0  0  0  0  0  0  0
   -2.6851    0.1058   -0.7330 C   0  0  0  0  0  0  0  0  0  0  0  0
   -3.9421    0.5985   -1.0891 C   0  0  0  0  0  0  0  0  0  0  0  0
   -4.1316    1.9859   -1.1247 C   0  0  0  0  0  0  0  0  0  0  0  0
   -5.3612    2.4932   -1.4729 O   0  0  0  0  0  0  0  0  0  0  0  0
   -5.0271   -0.1711   -1.4134 O   0  0  0  0  0  0  0  0  0  0  0  0
   -4.8683   -1.5822   -1.3822 C   0  0  0  0  0  0  0  0  0  0  0  0
   -0.2826    0.5101   -0.0332 C   0  0  0  0  0  0  0  0  0  0  0  0
    0.6362    1.2632    0.2477 O   0  0  0  0  0  0  0  0  0  0  0  0
   -0.2364   -0.8440   -0.0399 O   0  0  0  0  0  0  0  0  0  0  0  0
    1.0294   -1.4363    0.3109 C   0  0  0  0  0  0  0  0  0  0  0  0
    1.1408   -1.5505    1.8282 C   0  0  0  0  0  0  0  0  0  0  0  0
    2.3041   -2.4179    2.3153 C   0  0  0  0  0  0  0  0  0  0  0  0
    3.6859   -1.9097    1.9042 C   0  0  0  0  0  0  0  0  0  0  0  0
    3.9363   -2.2769    0.5134 N   0  0  0  0  0  0  0  0  0  0  0  0
    5.0082   -1.8516   -0.0389 C   0  0  0  0  0  0  0  0  0  0  0  0
    6.0060   -1.0945    0.4666 N   0  0  0  0  0  0  0  0  0  0  0  0
    5.2638   -2.1476   -1.3310 N   0  0  0  0  0  0  0  0  0  0  0  0
   -1.5808    5.0710   -1.2821 H   0  0  0  0  0  0  0  0  0  0  0  0
   -2.8469    6.1544   -0.6915 H   0  0  0  0  0  0  0  0  0  0  0  0
   -2.0844    5.0443    0.4539 H   0  0  0  0  0  0  0  0  0  0  0  0
   -1.0237    3.0375   -0.2119 H   0  0  0  0  0  0  0  0  0  0  0  0
   -2.5014   -0.9625   -0.6948 H   0  0  0  0  0  0  0  0  0  0  0  0
   -5.2623    3.4629   -1.4304 H   0  0  0  0  0  0  0  0  0  0  0  0
   -5.8250   -2.0331   -1.6632 H   0  0  0  0  0  0  0  0  0  0  0  0
   -4.6205   -1.9297   -0.3738 H   0  0  0  0  0  0  0  0  0  0  0  0
   -4.1192   -1.9114   -2.1098 H   0  0  0  0  0  0  0  0  0  0  0  0
    1.0448   -2.4306   -0.1475 H   0  0  0  0  0  0  0  0  0  0  0  0
    1.8492   -0.8569   -0.1265 H   0  0  0  0  0  0  0  0  0  0  0  0
    1.2210   -0.5480    2.2660 H   0  0  0  0  0  0  0  0  0  0  0  0
    0.2047   -1.9653    2.2236 H   0  0  0  0  0  0  0  0  0  0  0  0
    2.1625   -3.4499    1.9713 H   0  0  0  0  0  0  0  0  0  0  0  0
    2.2604   -2.4421    3.4113 H   0  0  0  0  0  0  0  0  0  0  0  0
    3.7444   -0.8249    2.0527 H   0  0  0  0  0  0  0  0  0  0  0  0
    4.4345   -2.3898    2.5459 H   0  0  0  0  0  0  0  0  0  0  0  0
    6.0126   -1.0336    1.4765 H   0  0  0  0  0  0  0  0  0  0  0  0
    6.9143   -1.3769    0.1165 H   0  0  0  0  0  0  0  0  0  0  0  0
    4.4446   -2.5754   -1.7519 H   0  0  0  0  0  0  0  0  0  0  0  0
    5.5430   -1.3297   -1.8594 H   0  0  0  0  0  0  0  0  0  0  0  0
  1  2  1  0
  2  3  1  0
  3  4  2  0
  4  5  1  0
  5  6  2  0
  6  7  1  0
  7  8  2  0
  8  9  1  0
  7 10  1  0
 10 11  1  0
  5 12  1  0
 12 13  2  0
 12 14  1  0
 14 15  1  0
 15 16  1  0
 16 17  1  0
 17 18  1  0
 18 19  1  0
 19 20  2  3
 20 21  1  0
 20 22  1  0
  8  3  1  0
  1 23  1  0
  1 24  1  0
  1 25  1  0
  4 26  1  0
  6 27  1  0
  9 28  1  0
 11 29  1  0
 11 30  1  0
 11 31  1  0
 15 32  1  0
 15 33  1  0
 16 34  1  0
 16 35  1  0
 17 36  1  0
 17 37  1  0
 18 38  1  0
 18 39  1  0
 21 40  1  0
 21 41  1  0
 22 42  1  0
 22 43  1  0
M  END
$$$$
leonurine.sdf
     RDKit          3D

 43 43  0  0  0  0  0  0  0  0999 V2000
   -1.8922    4.5783   -0.7285 C   0  0  0  0  0  0  0  0  0  0  0  0
   -3.1800    3.9829   -0.8406 O   0  0  0  0  0  0  0  0  0  0  0  0
   -3.2356    2.6119   -0.8059 C   0  0  0  0  0  0  0  0  0  0  0  0
   -2.1473    1.7517   -0.6753 C   0  0  0  0  0  0  0  0  0  0  0  0
   -2.3533    0.3626   -0.6547 C   0  0  0  0  0  0  0  0  0  0  0  0
   -3.6532   -0.1616   -0.7647 C   0  0  0  0  0  0  0  0  0  0  0  0
   -4.7516    0.6887   -0.8960 C   0  0  0  0  0  0  0  0  0  0  0  0
   -4.5256    2.0703   -0.9152 C   0  0  0  0  0  0  0  0  0  0  0  0
   -5.5913    2.9293   -1.0439 O   0  0  0  0  0  0  0  0  0  0  0  0
   -6.0537    0.2824   -1.0102 O   0  0  0  0  0  0  0  0  0  0  0  0
   -6.3112   -1.1146   -0.9863 C   0  0  0  0  0  0  0  0  0  0  0  0
   -1.2278   -0.6035   -0.5172 C   0  0  0  0  0  0  0  0  0  0  0  0
   -1.3830   -1.8136   -0.4874 O   0  0  0  0  0  0  0  0  0  0  0  0
   -0.0430    0.0508   -0.4300 O   0  0  0  0  0  0  0  0  0  0  0  0
    1.1228   -0.7804   -0.2933 C   0  0  0  0  0  0  0  0  0  0  0  0
    1.3835   -1.0627    1.1836 C   0  0  0  0  0  0  0  0  0  0  0  0
    2.5923   -1.9649    1.4270 C   0  0  0  0  0  0  0  0  0  0  0  0
    3.9218   -1.3182    1.0376 C   0  0  0  0  0  0  0  0  0  0  0  0
    4.9947   -2.2378    1.4024 N   0  0  0  0  0  0  0  0  0  0  0  0
    6.1965   -1.9204    1.1058 C   0  0  0  0  0  0  0  0  0  0  0  0
    7.2086   -2.7612    1.4076 N   0  0  0  0  0  0  0  0  0  0  0  0
    6.6789   -0.8175    0.4926 N   0  0  0  0  0  0  0  0  0  0  0  0
   -2.0216    5.6640   -0.7714 H   0  0  0  0  0  0  0  0  0  0  0  0
   -1.4280    4.3356    0.2330 H   0  0  0  0  0  0  0  0  0  0  0  0
   -1.2488    4.2861   -1.5650 H   0  0  0  0  0  0  0  0  0  0  0  0
   -1.1386    2.1397   -0.5887 H   0  0  0  0  0  0  0  0  0  0  0  0
   -3.7785   -1.2406   -0.7449 H   0  0  0  0  0  0  0  0  0  0  0  0
   -5.2060    3.8253   -1.0323 H   0  0  0  0  0  0  0  0  0  0  0  0
   -6.0024   -1.5570   -0.0335 H   0  0  0  0  0  0  0  0  0  0  0  0
   -5.8312   -1.6190   -1.8314 H   0  0  0  0  0  0  0  0  0  0  0  0
   -7.3917   -1.2574   -1.0844 H   0  0  0  0  0  0  0  0  0  0  0  0
    1.0208   -1.7048   -0.8739 H   0  0  0  0  0  0  0  0  0  0  0  0
    1.9528   -0.2166   -0.7301 H   0  0  0  0  0  0  0  0  0  0  0  0
    1.5031   -0.1142    1.7219 H   0  0  0  0  0  0  0  0  0  0  0  0
    0.4964   -1.5369    1.6214 H   0  0  0  0  0  0  0  0  0  0  0  0
    2.6212   -2.2256    2.4928 H   0  0  0  0  0  0  0  0  0  0  0  0
    2.4659   -2.9098    0.8838 H   0  0  0  0  0  0  0  0  0  0  0  0
    4.0356   -0.3682    1.5730 H   0  0  0  0  0  0  0  0  0  0  0  0
    3.9418   -1.1229   -0.0401 H   0  0  0  0  0  0  0  0  0  0  0  0
    7.8275   -2.9110    0.6202 H   0  0  0  0  0  0  0  0  0  0  0  0
    6.8265   -3.6474    1.7261 H   0  0  0  0  0  0  0  0  0  0  0  0
    7.5721   -0.5319    0.8780 H   0  0  0  0  0  0  0  0  0  0  0  0
    6.0327   -0.0397    0.4725 H   0  0  0  0  0  0  0  0  0  0  0  0
  1  2  1  0
  2  3  1  0
  3  4  2  0
  4  5  1  0
  5  6  2  0
  6  7  1  0
  7  8  2  0
  8  9  1  0
  7 10  1  0
 10 11  1  0
  5 12  1  0
 12 13  2  0
 12 14  1  0
 14 15  1  0
 15 16  1  0
 16 17  1  0
 17 18  1  0
 18 19  1  0
 19 20  2  3
 20 21  1  0
 20 22  1  0
  8  3  1  0
  1 23  1  0
  1 24  1  0
  1 25  1  0
  4 26  1  0
  6 27  1  0
  9 28  1  0
 11 29  1  0
 11 30  1  0
 11 31  1  0
 15 32  1  0
 15 33  1  0
 16 34  1  0
 16 35  1  0
 17 36  1  0
 17 37  1  0
 18 38  1  0
 18 39  1  0
 21 40  1  0
 21 41  1  0
 22 42  1  0
 22 43  1  0
M  END
$$$$
leonurine.sdf
     RDKit          3D

 43 43  0  0  0  0  0  0  0  0999 V2000
   -0.8323    3.7547   -1.0285 C   0  0  0  0  0  0  0  0  0  0  0  0
   -2.2427    3.5683   -0.9851 O   0  0  0  0  0  0  0  0  0  0  0  0
   -2.6933    2.2874   -0.7839 C   0  0  0  0  0  0  0  0  0  0  0  0
   -1.8967    1.1572   -0.6138 C   0  0  0  0  0  0  0  0  0  0  0  0
   -2.4967   -0.0971   -0.4158 C   0  0  0  0  0  0  0  0  0  0  0  0
   -3.8972   -0.2155   -0.3886 C   0  0  0  0  0  0  0  0  0  0  0  0
   -4.7064    0.9085   -0.5573 C   0  0  0  0  0  0  0  0  0  0  0  0
   -4.0895    2.1501   -0.7536 C   0  0  0  0  0  0  0  0  0  0  0  0
   -4.8650    3.2728   -0.9225 O   0  0  0  0  0  0  0  0  0  0  0  0
   -6.0753    0.9028   -0.5477 O   0  0  0  0  0  0  0  0  0  0  0  0
   -6.7261   -0.3441   -0.3474 C   0  0  0  0  0  0  0  0  0  0  0  0
   -1.6936   -1.3375   -0.2284 C   0  0  0  0  0  0  0  0  0  0  0  0
   -2.1878   -2.4401   -0.0559 O   0  0  0  0  0  0  0  0  0  0  0  0
   -0.3677   -1.0596   -0.2774 O   0  0  0  0  0  0  0  0  0  0  0  0
    0.4826   -2.1999   -0.0937 C   0  0  0  0  0  0  0  0  0  0  0  0
    1.9390   -1.7505   -0.1611 C   0  0  0  0  0  0  0  0  0  0  0  0
    2.2981   -0.7884    0.9776 C   0  0  0  0  0  0  0  0  0  0  0  0
    3.7617   -0.3492    0.9272 C   0  0  0  0  0  0  0  0  0  0  0  0
    4.6135   -1.5022    1.2004 N   0  0  0  0  0  0  0  0  0  0  0  0
    5.8806   -1.3511    1.1295 C   0  0  0  0  0  0  0  0  0  0  0  0
    6.6977   -2.4021    1.3534 N   0  0  0  0  0  0  0  0  0  0  0  0
    6.6107   -0.2510    0.8432 N   0  0  0  0  0  0  0  0  0  0  0  0
   -0.6415    4.8190   -1.1961 H   0  0  0  0  0  0  0  0  0  0  0  0
   -0.3868    3.2010   -1.8616 H   0  0  0  0  0  0  0  0  0  0  0  0
   -0.3688    3.4790   -0.0756 H   0  0  0  0  0  0  0  0  0  0  0  0
   -0.8150    1.2305   -0.6317 H   0  0  0  0  0  0  0  0  0  0  0  0
   -4.3293   -1.2000   -0.2333 H   0  0  0  0  0  0  0  0  0  0  0  0
   -4.2352    4.0082   -1.0403 H   0  0  0  0  0  0  0  0  0  0  0  0
   -6.4908   -1.0464   -1.1539 H   0  0  0  0  0  0  0  0  0  0  0  0
   -6.4772   -0.7668    0.6315 H   0  0  0  0  0  0  0  0  0  0  0  0
   -7.8055   -0.1651   -0.3672 H   0  0  0  0  0  0  0  0  0  0  0  0
    0.2907   -2.9244   -0.8937 H   0  0  0  0  0  0  0  0  0  0  0  0
    0.2741   -2.6668    0.8762 H   0  0  0  0  0  0  0  0  0  0  0  0
    2.5825   -2.6365   -0.1243 H   0  0  0  0  0  0  0  0  0  0  0  0
    2.1188   -1.2473   -1.1190 H   0  0  0  0  0  0  0  0  0  0  0  0
    1.6654    0.1051    0.9169 H   0  0  0  0  0  0  0  0  0  0  0  0
    2.0897   -1.2673    1.9423 H   0  0  0  0  0  0  0  0  0  0  0  0
    3.9830    0.0833   -0.0559 H   0  0  0  0  0  0  0  0  0  0  0  0
    3.9197    0.4216    1.6908 H   0  0  0  0  0  0  0  0  0  0  0  0
    7.4071   -2.4941    0.6366 H   0  0  0  0  0  0  0  0  0  0  0  0
    6.1463   -3.2532    1.4143 H   0  0  0  0  0  0  0  0  0  0  0  0
    6.0964    0.6170    0.9175 H   0  0  0  0  0  0  0  0  0  0  0  0
    7.4630   -0.2104    1.3906 H   0  0  0  0  0  0  0  0  0  0  0  0
  1  2  1  0
  2  3  1  0
  3  4  2  0
  4  5  1  0
  5  6  2  0
  6  7  1  0
  7  8  2  0
  8  9  1  0
  7 10  1  0
 10 11  1  0
  5 12  1  0
 12 13  2  0
 12 14  1  0
 14 15  1  0
 15 16  1  0
 16 17  1  0
 17 18  1  0
 18 19  1  0
 19 20  2  3
 20 21  1  0
 20 22  1  0
  8  3  1  0
  1 23  1  0
  1 24  1  0
  1 25  1  0
  4 26  1  0
  6 27  1  0
  9 28  1  0
 11 29  1  0
 11 30  1  0
 11 31  1  0
 15 32  1  0
 15 33  1  0
 16 34  1  0
 16 35  1  0
 17 36  1  0
 17 37  1  0
 18 38  1  0
 18 39  1  0
 21 40  1  0
 21 41  1  0
 22 42  1  0
 22 43  1  0
M  END
$$$$
leonurine.sdf
     RDKit          3D

 43 43  0  0  0  0  0  0  0  0999 V2000
   -3.2418    4.9317   -2.0223 C   0  0  0  0  0  0  0  0  0  0  0  0
   -4.1101    3.8996   -1.5659 O   0  0  0  0  0  0  0  0  0  0  0  0
   -3.5150    2.7637   -1.0772 C   0  0  0  0  0  0  0  0  0  0  0  0
   -2.1455    2.5298   -0.9911 C   0  0  0  0  0  0  0  0  0  0  0  0
   -1.6710    1.3158   -0.4674 C   0  0  0  0  0  0  0  0  0  0  0  0
   -2.5752    0.3336   -0.0276 C   0  0  0  0  0  0  0  0  0  0  0  0
   -3.9514    0.5556   -0.1081 C   0  0  0  0  0  0  0  0  0  0  0  0
   -4.4033    1.7724   -0.6345 C   0  0  0  0  0  0  0  0  0  0  0  0
   -5.7542    2.0123   -0.7238 O   0  0  0  0  0  0  0  0  0  0  0  0
   -4.9170   -0.3300    0.2898 O   0  0  0  0  0  0  0  0  0  0  0  0
   -4.4902   -1.5678    0.8404 C   0  0  0  0  0  0  0  0  0  0  0  0
   -0.1954    1.1220   -0.4013 C   0  0  0  0  0  0  0  0  0  0  0  0
    0.6050    1.9690   -0.7647 O   0  0  0  0  0  0  0  0  0  0  0  0
    0.1033   -0.1011    0.0992 O   0  0  0  0  0  0  0  0  0  0  0  0
    1.5055   -0.4071    0.2262 C   0  0  0  0  0  0  0  0  0  0  0  0
    2.0175   -1.0093   -1.0789 C   0  0  0  0  0  0  0  0  0  0  0  0
    3.5298   -1.2422   -1.1176 C   0  0  0  0  0  0  0  0  0  0  0  0
    4.0347   -2.2960   -0.1318 C   0  0  0  0  0  0  0  0  0  0  0  0
    4.0566   -1.7284    1.2118 N   0  0  0  0  0  0  0  0  0  0  0  0
    4.5423   -2.4330    2.1613 C   0  0  0  0  0  0  0  0  0  0  0  0
    5.0565   -3.6818    2.1424 N   0  0  0  0  0  0  0  0  0  0  0  0
    4.5973   -1.9290    3.4124 N   0  0  0  0  0  0  0  0  0  0  0  0
   -3.8646    5.7594   -2.3749 H   0  0  0  0  0  0  0  0  0  0  0  0
   -2.6159    5.3094   -1.2071 H   0  0  0  0  0  0  0  0  0  0  0  0
   -2.6327    4.5901   -2.8656 H   0  0  0  0  0  0  0  0  0  0  0  0
   -1.4228    3.2698   -1.3224 H   0  0  0  0  0  0  0  0  0  0  0  0
   -2.1884   -0.5966    0.3744 H   0  0  0  0  0  0  0  0  0  0  0  0
   -5.8332    2.9040   -1.1116 H   0  0  0  0  0  0  0  0  0  0  0  0
   -3.9094   -1.4138    1.7558 H   0  0  0  0  0  0  0  0  0  0  0  0
   -3.9256   -2.1524    0.1067 H   0  0  0  0  0  0  0  0  0  0  0  0
   -5.3833   -2.1416    1.1061 H   0  0  0  0  0  0  0  0  0  0  0  0
    1.5790   -1.1317    1.0419 H   0  0  0  0  0  0  0  0  0  0  0  0
    2.0747    0.4822    0.5209 H   0  0  0  0  0  0  0  0  0  0  0  0
    1.7492   -0.3470   -1.9114 H   0  0  0  0  0  0  0  0  0  0  0  0
    1.4863   -1.9490   -1.2758 H   0  0  0  0  0  0  0  0  0  0  0  0
    3.7857   -1.5771   -2.1307 H   0  0  0  0  0  0  0  0  0  0  0  0
    4.0537   -0.2918   -0.9577 H   0  0  0  0  0  0  0  0  0  0  0  0
    5.0494   -2.5863   -0.4305 H   0  0  0  0  0  0  0  0  0  0  0  0
    3.3929   -3.1838   -0.1734 H   0  0  0  0  0  0  0  0  0  0  0  0
    4.8210   -4.2044    2.9785 H   0  0  0  0  0  0  0  0  0  0  0  0
    4.8327   -4.2127    1.3108 H   0  0  0  0  0  0  0  0  0  0  0  0
    4.3676   -0.9395    3.3909 H   0  0  0  0  0  0  0  0  0  0  0  0
    5.5056   -2.0670    3.8388 H   0  0  0  0  0  0  0  0  0  0  0  0
  1  2  1  0
  2  3  1  0
  3  4  2  0
  4  5  1  0
  5  6  2  0
  6  7  1  0
  7  8  2  0
  8  9  1  0
  7 10  1  0
 10 11  1  0
  5 12  1  0
 12 13  2  0
 12 14  1  0
 14 15  1  0
 15 16  1  0
 16 17  1  0
 17 18  1  0
 18 19  1  0
 19 20  2  3
 20 21  1  0
 20 22  1  0
  8  3  1  0
  1 23  1  0
  1 24  1  0
  1 25  1  0
  4 26  1  0
  6 27  1  0
  9 28  1  0
 11 29  1  0
 11 30  1  0
 11 31  1  0
 15 32  1  0
 15 33  1  0
 16 34  1  0
 16 35  1  0
 17 36  1  0
 17 37  1  0
 18 38  1  0
 18 39  1  0
 21 40  1  0
 21 41  1  0
 22 42  1  0
 22 43  1  0
M  END
$$$$
leonurine.sdf
     RDKit          3D

 43 43  0  0  0  0  0  0  0  0999 V2000
   -1.6444    4.5610   -1.2570 C   0  0  0  0  0  0  0  0  0  0  0  0
   -2.9530    4.0147   -1.3322 O   0  0  0  0  0  0  0  0  0  0  0  0
   -3.1190    2.7059   -0.9657 C   0  0  0  0  0  0  0  0  0  0  0  0
   -2.1017    1.8624   -0.5149 C   0  0  0  0  0  0  0  0  0  0  0  0
   -2.3871    0.5316   -0.1642 C   0  0  0  0  0  0  0  0  0  0  0  0
   -3.6989    0.0395   -0.2648 C   0  0  0  0  0  0  0  0  0  0  0  0
   -4.7223    0.8700   -0.7127 C   0  0  0  0  0  0  0  0  0  0  0  0
   -4.4202    2.1954   -1.0581 C   0  0  0  0  0  0  0  0  0  0  0  0
   -5.4372    3.0086   -1.4992 O   0  0  0  0  0  0  0  0  0  0  0  0
   -6.0410    0.5191   -0.8575 O   0  0  0  0  0  0  0  0  0  0  0  0
   -6.3884   -0.8201   -0.5209 C   0  0  0  0  0  0  0  0  0  0  0  0
   -1.3345   -0.4039    0.3212 C   0  0  0  0  0  0  0  0  0  0  0  0
   -1.5616   -1.5630    0.6293 O   0  0  0  0  0  0  0  0  0  0  0  0
   -0.1268    0.2107    0.3618 O   0  0  0  0  0  0  0  0  0  0  0  0
    0.9731   -0.5967    0.8161 C   0  0  0  0  0  0  0  0  0  0  0  0
    1.5946   -1.3332   -0.3672 C   0  0  0  0  0  0  0  0  0  0  0  0
    2.7618   -2.2382    0.0240 C   0  0  0  0  0  0  0  0  0  0  0  0
    3.9829   -1.4699    0.5303 C   0  0  0  0  0  0  0  0  0  0  0  0
    5.0497   -2.4335    0.7822 N   0  0  0  0  0  0  0  0  0  0  0  0
    6.1515   -2.0082    1.2704 C   0  0  0  0  0  0  0  0  0  0  0  0
    7.1492   -2.8774    1.5375 N   0  0  0  0  0  0  0  0  0  0  0  0
    6.5299   -0.7542    1.6013 N   0  0  0  0  0  0  0  0  0  0  0  0
   -0.9573    4.0344   -1.9275 H   0  0  0  0  0  0  0  0  0  0  0  0
   -1.6970    5.6031   -1.5867 H   0  0  0  0  0  0  0  0  0  0  0  0
   -1.2733    4.5566   -0.2268 H   0  0  0  0  0  0  0  0  0  0  0  0
   -1.0826    2.2234   -0.4305 H   0  0  0  0  0  0  0  0  0  0  0  0
   -3.8892   -0.9932    0.0130 H   0  0  0  0  0  0  0  0  0  0  0  0
   -6.2387    2.4525   -1.4834 H   0  0  0  0  0  0  0  0  0  0  0  0
   -6.1943   -1.0234    0.5374 H   0  0  0  0  0  0  0  0  0  0  0  0
   -7.4628   -0.9385   -0.6912 H   0  0  0  0  0  0  0  0  0  0  0  0
   -5.8679   -1.5362   -1.1652 H   0  0  0  0  0  0  0  0  0  0  0  0
    0.6573   -1.2877    1.6066 H   0  0  0  0  0  0  0  0  0  0  0  0
    1.6951    0.0939    1.2625 H   0  0  0  0  0  0  0  0  0  0  0  0
    1.9149   -0.6061   -1.1237 H   0  0  0  0  0  0  0  0  0  0  0  0
    0.8248   -1.9430   -0.8559 H   0  0  0  0  0  0  0  0  0  0  0  0
    3.0517   -2.8294   -0.8542 H   0  0  0  0  0  0  0  0  0  0  0  0
    2.4348   -2.9587    0.7842 H   0  0  0  0  0  0  0  0  0  0  0  0
    4.2965   -0.7435   -0.2286 H   0  0  0  0  0  0  0  0  0  0  0  0
    3.7327   -0.9344    1.4526 H   0  0  0  0  0  0  0  0  0  0  0  0
    7.5315   -2.7453    2.4659 H   0  0  0  0  0  0  0  0  0  0  0  0
    6.8052   -3.8278    1.4321 H   0  0  0  0  0  0  0  0  0  0  0  0
    7.5091   -0.5892    1.3968 H   0  0  0  0  0  0  0  0  0  0  0  0
    5.9530   -0.0280    1.1976 H   0  0  0  0  0  0  0  0  0  0  0  0
  1  2  1  0
  2  3  1  0
  3  4  2  0
  4  5  1  0
  5  6  2  0
  6  7  1  0
  7  8  2  0
  8  9  1  0
  7 10  1  0
 10 11  1  0
  5 12  1  0
 12 13  2  0
 12 14  1  0
 14 15  1  0
 15 16  1  0
 16 17  1  0
 17 18  1  0
 18 19  1  0
 19 20  2  3
 20 21  1  0
 20 22  1  0
  8  3  1  0
  1 23  1  0
  1 24  1  0
  1 25  1  0
  4 26  1  0
  6 27  1  0
  9 28  1  0
 11 29  1  0
 11 30  1  0
 11 31  1  0
 15 32  1  0
 15 33  1  0
 16 34  1  0
 16 35  1  0
 17 36  1  0
 17 37  1  0
 18 38  1  0
 18 39  1  0
 21 40  1  0
 21 41  1  0
 22 42  1  0
 22 43  1  0
M  END
$$$$
leonurine.sdf
     RDKit          3D

 43 43  0  0  0  0  0  0  0  0999 V2000
   -3.1447    5.0727   -1.9559 C   0  0  0  0  0  0  0  0  0  0  0  0
   -4.0799    4.1420   -1.4207 O   0  0  0  0  0  0  0  0  0  0  0  0
   -3.6048    2.8887   -1.1266 C   0  0  0  0  0  0  0  0  0  0  0  0
   -2.2962    2.4477   -1.3022 C   0  0  0  0  0  0  0  0  0  0  0  0
   -1.9452    1.1322   -0.9566 C   0  0  0  0  0  0  0  0  0  0  0  0
   -2.9118    0.2559   -0.4339 C   0  0  0  0  0  0  0  0  0  0  0  0
   -4.2281    0.6856   -0.2532 C   0  0  0  0  0  0  0  0  0  0  0  0
   -4.5567    2.0015   -0.6031 C   0  0  0  0  0  0  0  0  0  0  0  0
   -5.8466    2.4458   -0.4328 O   0  0  0  0  0  0  0  0  0  0  0  0
   -5.2458   -0.0818    0.2469 O   0  0  0  0  0  0  0  0  0  0  0  0
   -4.9491   -1.4256    0.5977 C   0  0  0  0  0  0  0  0  0  0  0  0
   -0.5298    0.7181   -1.1655 C   0  0  0  0  0  0  0  0  0  0  0  0
    0.3207    1.4580   -1.6337 O   0  0  0  0  0  0  0  0  0  0  0  0
   -0.3389   -0.5617   -0.7613 O   0  0  0  0  0  0  0  0  0  0  0  0
    0.9945   -1.0749   -0.9164 C   0  0  0  0  0  0  0  0  0  0  0  0
    1.8317   -0.7274    0.3103 C   0  0  0  0  0  0  0  0  0  0  0  0
    3.2302   -1.3320    0.2222 C   0  0  0  0  0  0  0  0  0  0  0  0
    4.0722   -0.9694    1.4431 C   0  0  0  0  0  0  0  0  0  0  0  0
    5.4083   -1.5385    1.3062 N   0  0  0  0  0  0  0  0  0  0  0  0
    5.6551   -2.7192    1.7238 C   0  0  0  0  0  0  0  0  0  0  0  0
    6.8958   -3.2323    1.5777 N   0  0  0  0  0  0  0  0  0  0  0  0
    4.8510   -3.6314    2.3122 N   0  0  0  0  0  0  0  0  0  0  0  0
   -2.3383    5.2752   -1.2433 H   0  0  0  0  0  0  0  0  0  0  0  0
   -2.7487    4.7258   -2.9160 H   0  0  0  0  0  0  0  0  0  0  0  0
   -3.6752    6.0130   -2.1345 H   0  0  0  0  0  0  0  0  0  0  0  0
   -1.5279    3.1019   -1.7042 H   0  0  0  0  0  0  0  0  0  0  0  0
   -2.6212   -0.7560   -0.1738 H   0  0  0  0  0  0  0  0  0  0  0  0
   -5.8436    3.3726   -0.7375 H   0  0  0  0  0  0  0  0  0  0  0  0
   -4.6189   -1.9982   -0.2752 H   0  0  0  0  0  0  0  0  0  0  0  0
   -5.8700   -1.8861    0.9684 H   0  0  0  0  0  0  0  0  0  0  0  0
   -4.2084   -1.4688    1.4029 H   0  0  0  0  0  0  0  0  0  0  0  0
    1.4538   -0.7078   -1.8420 H   0  0  0  0  0  0  0  0  0  0  0  0
    0.9035   -2.1623   -1.0140 H   0  0  0  0  0  0  0  0  0  0  0  0
    1.8980    0.3621    0.4164 H   0  0  0  0  0  0  0  0  0  0  0  0
    1.3194   -1.0859    1.2119 H   0  0  0  0  0  0  0  0  0  0  0  0
    3.1539   -2.4224    0.1323 H   0  0  0  0  0  0  0  0  0  0  0  0
    3.7319   -0.9766   -0.6866 H   0  0  0  0  0  0  0  0  0  0  0  0
    4.1762    0.1204    1.5043 H   0  0  0  0  0  0  0  0  0  0  0  0
    3.5795   -1.2742    2.3730 H   0  0  0  0  0  0  0  0  0  0  0  0
    7.4505   -2.6089    0.9978 H   0  0  0  0  0  0  0  0  0  0  0  0
    6.8784   -4.1613    1.1755 H   0  0  0  0  0  0  0  0  0  0  0  0
    5.3399   -4.1598    3.0261 H   0  0  0  0  0  0  0  0  0  0  0  0
    3.9854   -3.2564    2.6751 H   0  0  0  0  0  0  0  0  0  0  0  0
  1  2  1  0
  2  3  1  0
  3  4  2  0
  4  5  1  0
  5  6  2  0
  6  7  1  0
  7  8  2  0
  8  9  1  0
  7 10  1  0
 10 11  1  0
  5 12  1  0
 12 13  2  0
 12 14  1  0
 14 15  1  0
 15 16  1  0
 16 17  1  0
 17 18  1  0
 18 19  1  0
 19 20  2  3
 20 21  1  0
 20 22  1  0
  8  3  1  0
  1 23  1  0
  1 24  1  0
  1 25  1  0
  4 26  1  0
  6 27  1  0
  9 28  1  0
 11 29  1  0
 11 30  1  0
 11 31  1  0
 15 32  1  0
 15 33  1  0
 16 34  1  0
 16 35  1  0
 17 36  1  0
 17 37  1  0
 18 38  1  0
 18 39  1  0
 21 40  1  0
 21 41  1  0
 22 42  1  0
 22 43  1  0
M  END
$$$$
leonurine.sdf
     RDKit          3D

 43 43  0  0  0  0  0  0  0  0999 V2000
   -0.9026    3.9680   -1.9329 C   0  0  0  0  0  0  0  0  0  0  0  0
   -2.1929    3.4058   -2.1227 O   0  0  0  0  0  0  0  0  0  0  0  0
   -2.5271    2.3108   -1.3718 C   0  0  0  0  0  0  0  0  0  0  0  0
   -1.6877    1.6823   -0.4498 C   0  0  0  0  0  0  0  0  0  0  0  0
   -2.1362    0.5600    0.2678 C   0  0  0  0  0  0  0  0  0  0  0  0
   -3.4333    0.0617    0.0631 C   0  0  0  0  0  0  0  0  0  0  0  0
   -4.2799    0.6784   -0.8539 C   0  0  0  0  0  0  0  0  0  0  0  0
   -3.8162    1.7969   -1.5619 C   0  0  0  0  0  0  0  0  0  0  0  0
   -4.6591    2.3993   -2.4658 O   0  0  0  0  0  0  0  0  0  0  0  0
   -5.5640    0.2959   -1.1501 O   0  0  0  0  0  0  0  0  0  0  0  0
   -6.0723   -0.8367   -0.4525 C   0  0  0  0  0  0  0  0  0  0  0  0
   -1.2746   -0.1434    1.2584 C   0  0  0  0  0  0  0  0  0  0  0  0
   -1.6494   -1.1097    1.9030 O   0  0  0  0  0  0  0  0  0  0  0  0
   -0.0499    0.4333    1.3211 O   0  0  0  0  0  0  0  0  0  0  0  0
    0.8843   -0.1739    2.2277 C   0  0  0  0  0  0  0  0  0  0  0  0
    1.6230   -1.3334    1.5638 C   0  0  0  0  0  0  0  0  0  0  0  0
    2.3875   -0.8890    0.3112 C   0  0  0  0  0  0  0  0  0  0  0  0
    3.1608   -2.0375   -0.3350 C   0  0  0  0  0  0  0  0  0  0  0  0
    4.2168   -2.5143    0.5522 N   0  0  0  0  0  0  0  0  0  0  0  0
    5.3660   -1.9588    0.5483 C   0  0  0  0  0  0  0  0  0  0  0  0
    5.8375   -0.9162   -0.1695 N   0  0  0  0  0  0  0  0  0  0  0  0
    6.3276   -2.4102    1.3821 N   0  0  0  0  0  0  0  0  0  0  0  0
   -0.8134    4.8334   -2.5965 H   0  0  0  0  0  0  0  0  0  0  0  0
   -0.7730    4.3224   -0.9049 H   0  0  0  0  0  0  0  0  0  0  0  0
   -0.1177    3.2558   -2.2080 H   0  0  0  0  0  0  0  0  0  0  0  0
   -0.6826    2.0515   -0.2777 H   0  0  0  0  0  0  0  0  0  0  0  0
   -3.7518   -0.8070    0.6321 H   0  0  0  0  0  0  0  0  0  0  0  0
   -5.4864    1.8832   -2.4318 H   0  0  0  0  0  0  0  0  0  0  0  0
   -6.1118   -0.6503    0.6258 H   0  0  0  0  0  0  0  0  0  0  0  0
   -7.0959   -1.0093   -0.7984 H   0  0  0  0  0  0  0  0  0  0  0  0
   -5.4878   -1.7343   -0.6795 H   0  0  0  0  0  0  0  0  0  0  0  0
    0.3812   -0.5027    3.1448 H   0  0  0  0  0  0  0  0  0  0  0  0
    1.5963    0.6052    2.5213 H   0  0  0  0  0  0  0  0  0  0  0  0
    0.9061   -2.1129    1.2802 H   0  0  0  0  0  0  0  0  0  0  0  0
    2.3127   -1.7715    2.2938 H   0  0  0  0  0  0  0  0  0  0  0  0
    1.6799   -0.4924   -0.4265 H   0  0  0  0  0  0  0  0  0  0  0  0
    3.0726   -0.0728    0.5694 H   0  0  0  0  0  0  0  0  0  0  0  0
    2.4803   -2.8726   -0.5386 H   0  0  0  0  0  0  0  0  0  0  0  0
    3.5518   -1.7320   -1.3119 H   0  0  0  0  0  0  0  0  0  0  0  0
    6.8058   -1.0500   -0.4382 H   0  0  0  0  0  0  0  0  0  0  0  0
    5.2745   -0.6704   -0.9725 H   0  0  0  0  0  0  0  0  0  0  0  0
    5.9257   -3.0842    2.0274 H   0  0  0  0  0  0  0  0  0  0  0  0
    6.7751   -1.6584    1.8917 H   0  0  0  0  0  0  0  0  0  0  0  0
  1  2  1  0
  2  3  1  0
  3  4  2  0
  4  5  1  0
  5  6  2  0
  6  7  1  0
  7  8  2  0
  8  9  1  0
  7 10  1  0
 10 11  1  0
  5 12  1  0
 12 13  2  0
 12 14  1  0
 14 15  1  0
 15 16  1  0
 16 17  1  0
 17 18  1  0
 18 19  1  0
 19 20  2  3
 20 21  1  0
 20 22  1  0
  8  3  1  0
  1 23  1  0
  1 24  1  0
  1 25  1  0
  4 26  1  0
  6 27  1  0
  9 28  1  0
 11 29  1  0
 11 30  1  0
 11 31  1  0
 15 32  1  0
 15 33  1  0
 16 34  1  0
 16 35  1  0
 17 36  1  0
 17 37  1  0
 18 38  1  0
 18 39  1  0
 21 40  1  0
 21 41  1  0
 22 42  1  0
 22 43  1  0
M  END
$$$$
leonurine.sdf
     RDKit          3D

 43 43  0  0  0  0  0  0  0  0999 V2000
   -2.6866    5.2585   -1.2431 C   0  0  0  0  0  0  0  0  0  0  0  0
   -3.7324    4.2972   -1.2139 O   0  0  0  0  0  0  0  0  0  0  0  0
   -3.3992    3.0076   -0.8985 C   0  0  0  0  0  0  0  0  0  0  0  0
   -2.1140    2.5632   -0.5865 C   0  0  0  0  0  0  0  0  0  0  0  0
   -1.8818    1.2122   -0.2749 C   0  0  0  0  0  0  0  0  0  0  0  0
   -2.9439    0.2935   -0.2766 C   0  0  0  0  0  0  0  0  0  0  0  0
   -4.2322    0.7242   -0.5867 C   0  0  0  0  0  0  0  0  0  0  0  0
   -4.4452    2.0770   -0.8932 C   0  0  0  0  0  0  0  0  0  0  0  0
   -5.7210    2.4900   -1.1965 O   0  0  0  0  0  0  0  0  0  0  0  0
   -5.3573   -0.0610   -0.6258 O   0  0  0  0  0  0  0  0  0  0  0  0
   -5.1882   -1.4439   -0.3346 C   0  0  0  0  0  0  0  0  0  0  0  0
   -0.4852    0.8077    0.0487 C   0  0  0  0  0  0  0  0  0  0  0  0
    0.4594    1.5803    0.0306 O   0  0  0  0  0  0  0  0  0  0  0  0
   -0.4271   -0.5118    0.3577 O   0  0  0  0  0  0  0  0  0  0  0  0
    0.8787   -1.0177    0.6822 C   0  0  0  0  0  0  0  0  0  0  0  0
    1.5946   -1.4544   -0.5925 C   0  0  0  0  0  0  0  0  0  0  0  0
    2.9490   -2.1118   -0.3325 C   0  0  0  0  0  0  0  0  0  0  0  0
    4.0003   -1.1383    0.1983 C   0  0  0  0  0  0  0  0  0  0  0  0
    5.2897   -1.8184    0.2752 N   0  0  0  0  0  0  0  0  0  0  0  0
    5.6750   -2.3492    1.3700 C   0  0  0  0  0  0  0  0  0  0  0  0
    6.8866   -2.9421    1.4354 N   0  0  0  0  0  0  0  0  0  0  0  0
    5.0565   -2.4395    2.5673 N   0  0  0  0  0  0  0  0  0  0  0  0
   -1.9385    5.0057   -2.0016 H   0  0  0  0  0  0  0  0  0  0  0  0
   -3.1258    6.2224   -1.5177 H   0  0  0  0  0  0  0  0  0  0  0  0
   -2.2271    5.3718   -0.2557 H   0  0  0  0  0  0  0  0  0  0  0  0
   -1.2707    3.2481   -0.5773 H   0  0  0  0  0  0  0  0  0  0  0  0
   -2.7475   -0.7454   -0.0360 H   0  0  0  0  0  0  0  0  0  0  0  0
   -6.2752    1.6898   -1.1344 H   0  0  0  0  0  0  0  0  0  0  0  0
   -4.5234   -1.9216   -1.0619 H   0  0  0  0  0  0  0  0  0  0  0  0
   -6.1683   -1.9238   -0.4137 H   0  0  0  0  0  0  0  0  0  0  0  0
   -4.8272   -1.5897    0.6888 H   0  0  0  0  0  0  0  0  0  0  0  0
    1.4508   -0.2775    1.2521 H   0  0  0  0  0  0  0  0  0  0  0  0
    0.7278   -1.8800    1.3408 H   0  0  0  0  0  0  0  0  0  0  0  0
    0.9512   -2.1633   -1.1290 H   0  0  0  0  0  0  0  0  0  0  0  0
    1.7146   -0.5995   -1.2689 H   0  0  0  0  0  0  0  0  0  0  0  0
    3.3095   -2.5448   -1.2744 H   0  0  0  0  0  0  0  0  0  0  0  0
    2.8279   -2.9508    0.3636 H   0  0  0  0  0  0  0  0  0  0  0  0
    4.1052   -0.2969   -0.4966 H   0  0  0  0  0  0  0  0  0  0  0  0
    3.7032   -0.7016    1.1573 H   0  0  0  0  0  0  0  0  0  0  0  0
    7.4160   -2.6338    2.2420 H   0  0  0  0  0  0  0  0  0  0  0  0
    7.4028   -2.7413    0.5833 H   0  0  0  0  0  0  0  0  0  0  0  0
    5.2591   -3.3175    3.0316 H   0  0  0  0  0  0  0  0  0  0  0  0
    4.0600   -2.2737    2.5326 H   0  0  0  0  0  0  0  0  0  0  0  0
  1  2  1  0
  2  3  1  0
  3  4  2  0
  4  5  1  0
  5  6  2  0
  6  7  1  0
  7  8  2  0
  8  9  1  0
  7 10  1  0
 10 11  1  0
  5 12  1  0
 12 13  2  0
 12 14  1  0
 14 15  1  0
 15 16  1  0
 16 17  1  0
 17 18  1  0
 18 19  1  0
 19 20  2  3
 20 21  1  0
 20 22  1  0
  8  3  1  0
  1 23  1  0
  1 24  1  0
  1 25  1  0
  4 26  1  0
  6 27  1  0
  9 28  1  0
 11 29  1  0
 11 30  1  0
 11 31  1  0
 15 32  1  0
 15 33  1  0
 16 34  1  0
 16 35  1  0
 17 36  1  0
 17 37  1  0
 18 38  1  0
 18 39  1  0
 21 40  1  0
 21 41  1  0
 22 42  1  0
 22 43  1  0
M  END
$$$$
leonurine.sdf
     RDKit          3D

 43 43  0  0  0  0  0  0  0  0999 V2000
   -2.9729    5.2796   -1.2099 C   0  0  0  0  0  0  0  0  0  0  0  0
   -3.9545    4.2490   -1.1719 O   0  0  0  0  0  0  0  0  0  0  0  0
   -3.5150    2.9882   -0.8553 C   0  0  0  0  0  0  0  0  0  0  0  0
   -2.2027    2.6290   -0.5607 C   0  0  0  0  0  0  0  0  0  0  0  0
   -1.8916    1.2946   -0.2517 C   0  0  0  0  0  0  0  0  0  0  0  0
   -2.9014    0.3169   -0.2396 C   0  0  0  0  0  0  0  0  0  0  0  0
   -4.2215    0.6640   -0.5334 C   0  0  0  0  0  0  0  0  0  0  0  0
   -4.5106    2.0004   -0.8375 C   0  0  0  0  0  0  0  0  0  0  0  0
   -5.8039    2.3643   -1.1290 O   0  0  0  0  0  0  0  0  0  0  0  0
   -5.2797   -0.2048   -0.5494 O   0  0  0  0  0  0  0  0  0  0  0  0
   -5.0173   -1.5712   -0.2646 C   0  0  0  0  0  0  0  0  0  0  0  0
   -0.4707    0.9704    0.0556 C   0  0  0  0  0  0  0  0  0  0  0  0
    0.4230    1.8021    0.0462 O   0  0  0  0  0  0  0  0  0  0  0  0
   -0.3278   -0.3484    0.3360 O   0  0  0  0  0  0  0  0  0  0  0  0
    1.0079   -0.7810    0.6431 C   0  0  0  0  0  0  0  0  0  0  0  0
    1.7273   -1.1835   -0.6408 C   0  0  0  0  0  0  0  0  0  0  0  0
    3.1946   -1.5553   -0.4300 C   0  0  0  0  0  0  0  0  0  0  0  0
    3.3917   -2.7641    0.4827 C   0  0  0  0  0  0  0  0  0  0  0  0
    4.7940   -3.1681    0.4661 N   0  0  0  0  0  0  0  0  0  0  0  0
    5.6100   -2.6874    1.3225 C   0  0  0  0  0  0  0  0  0  0  0  0
    5.4167   -1.7789    2.3034 N   0  0  0  0  0  0  0  0  0  0  0  0
    6.8971   -3.0956    1.3234 N   0  0  0  0  0  0  0  0  0  0  0  0
   -3.4787    6.2120   -1.4783 H   0  0  0  0  0  0  0  0  0  0  0  0
   -2.5122    5.4214   -0.2267 H   0  0  0  0  0  0  0  0  0  0  0  0
   -2.2181    5.0771   -1.9769 H   0  0  0  0  0  0  0  0  0  0  0  0
   -1.4016    3.3624   -0.5631 H   0  0  0  0  0  0  0  0  0  0  0  0
   -2.6411   -0.7081    0.0010 H   0  0  0  0  0  0  0  0  0  0  0  0
   -5.7696    3.3229   -1.3074 H   0  0  0  0  0  0  0  0  0  0  0  0
   -5.9647   -2.1149   -0.3306 H   0  0  0  0  0  0  0  0  0  0  0  0
   -4.3332   -2.0043   -1.0017 H   0  0  0  0  0  0  0  0  0  0  0  0
   -4.6330   -1.6953    0.7532 H   0  0  0  0  0  0  0  0  0  0  0  0
    0.9068   -1.6416    1.3118 H   0  0  0  0  0  0  0  0  0  0  0  0
    1.5579   -0.0090    1.1941 H   0  0  0  0  0  0  0  0  0  0  0  0
    1.6736   -0.3592   -1.3627 H   0  0  0  0  0  0  0  0  0  0  0  0
    1.1903   -2.0173   -1.1101 H   0  0  0  0  0  0  0  0  0  0  0  0
    3.7371   -0.6912   -0.0274 H   0  0  0  0  0  0  0  0  0  0  0  0
    3.6415   -1.7669   -1.4098 H   0  0  0  0  0  0  0  0  0  0  0  0
    3.0349   -2.5671    1.4995 H   0  0  0  0  0  0  0  0  0  0  0  0
    2.7964   -3.6059    0.1104 H   0  0  0  0  0  0  0  0  0  0  0  0
    4.5792   -1.2231    2.1923 H   0  0  0  0  0  0  0  0  0  0  0  0
    6.2253   -1.1792    2.4242 H   0  0  0  0  0  0  0  0  0  0  0  0
    7.2149   -3.3517    2.2502 H   0  0  0  0  0  0  0  0  0  0  0  0
    7.0014   -3.8813    0.6876 H   0  0  0  0  0  0  0  0  0  0  0  0
  1  2  1  0
  2  3  1  0
  3  4  2  0
  4  5  1  0
  5  6  2  0
  6  7  1  0
  7  8  2  0
  8  9  1  0
  7 10  1  0
 10 11  1  0
  5 12  1  0
 12 13  2  0
 12 14  1  0
 14 15  1  0
 15 16  1  0
 16 17  1  0
 17 18  1  0
 18 19  1  0
 19 20  2  3
 20 21  1  0
 20 22  1  0
  8  3  1  0
  1 23  1  0
  1 24  1  0
  1 25  1  0
  4 26  1  0
  6 27  1  0
  9 28  1  0
 11 29  1  0
 11 30  1  0
 11 31  1  0
 15 32  1  0
 15 33  1  0
 16 34  1  0
 16 35  1  0
 17 36  1  0
 17 37  1  0
 18 38  1  0
 18 39  1  0
 21 40  1  0
 21 41  1  0
 22 42  1  0
 22 43  1  0
M  END
$$$$
leonurine.sdf
     RDKit          3D

 43 43  0  0  0  0  0  0  0  0999 V2000
   -2.2334    4.5146   -1.7117 C   0  0  0  0  0  0  0  0  0  0  0  0
   -3.3437    3.6239   -1.7092 O   0  0  0  0  0  0  0  0  0  0  0  0
   -3.1671    2.4142   -1.0851 C   0  0  0  0  0  0  0  0  0  0  0  0
   -2.0075    1.9866   -0.4421 C   0  0  0  0  0  0  0  0  0  0  0  0
   -1.9683    0.7170    0.1569 C   0  0  0  0  0  0  0  0  0  0  0  0
   -3.0939   -0.1239    0.1071 C   0  0  0  0  0  0  0  0  0  0  0  0
   -4.2617    0.2924   -0.5329 C   0  0  0  0  0  0  0  0  0  0  0  0
   -4.2818    1.5624   -1.1219 C   0  0  0  0  0  0  0  0  0  0  0  0
   -5.4208    1.9963   -1.7582 O   0  0  0  0  0  0  0  0  0  0  0  0
   -5.4100   -0.4457   -0.6361 O   0  0  0  0  0  0  0  0  0  0  0  0
   -5.4113   -1.7436   -0.0585 C   0  0  0  0  0  0  0  0  0  0  0  0
   -0.7553    0.2083    0.8566 C   0  0  0  0  0  0  0  0  0  0  0  0
   -0.6771   -0.9135    1.3311 O   0  0  0  0  0  0  0  0  0  0  0  0
    0.2110    1.1589    0.8864 O   0  0  0  0  0  0  0  0  0  0  0  0
    1.4437    0.7808    1.5208 C   0  0  0  0  0  0  0  0  0  0  0  0
    2.3878    0.1726    0.4894 C   0  0  0  0  0  0  0  0  0  0  0  0
    3.7328   -0.2015    1.1137 C   0  0  0  0  0  0  0  0  0  0  0  0
    4.7202   -0.7588    0.0888 C   0  0  0  0  0  0  0  0  0  0  0  0
    4.2081   -1.9843   -0.5131 N   0  0  0  0  0  0  0  0  0  0  0  0
    4.3793   -3.1095    0.0648 C   0  0  0  0  0  0  0  0  0  0  0  0
    3.8751   -4.2304   -0.4949 N   0  0  0  0  0  0  0  0  0  0  0  0
    4.9968   -3.4170    1.2259 N   0  0  0  0  0  0  0  0  0  0  0  0
   -2.5329    5.4195   -2.2491 H   0  0  0  0  0  0  0  0  0  0  0  0
   -1.9607    4.8071   -0.6924 H   0  0  0  0  0  0  0  0  0  0  0  0
   -1.3798    4.0794   -2.2418 H   0  0  0  0  0  0  0  0  0  0  0  0
   -1.1291    2.6209   -0.3980 H   0  0  0  0  0  0  0  0  0  0  0  0
   -3.0300   -1.1005    0.5785 H   0  0  0  0  0  0  0  0  0  0  0  0
   -5.2089    2.8892   -2.0888 H   0  0  0  0  0  0  0  0  0  0  0  0
   -5.2617   -1.6936    1.0250 H   0  0  0  0  0  0  0  0  0  0  0  0
   -4.6634   -2.3878   -0.5325 H   0  0  0  0  0  0  0  0  0  0  0  0
   -6.3947   -2.1887   -0.2379 H   0  0  0  0  0  0  0  0  0  0  0  0
    1.2672    0.1013    2.3632 H   0  0  0  0  0  0  0  0  0  0  0  0
    1.8791    1.6966    1.9352 H   0  0  0  0  0  0  0  0  0  0  0  0
    2.5350    0.8861   -0.3309 H   0  0  0  0  0  0  0  0  0  0  0  0
    1.9146   -0.7084    0.0399 H   0  0  0  0  0  0  0  0  0  0  0  0
    3.5720   -0.9314    1.9159 H   0  0  0  0  0  0  0  0  0  0  0  0
    4.1770    0.6884    1.5760 H   0  0  0  0  0  0  0  0  0  0  0  0
    4.8730   -0.0237   -0.7100 H   0  0  0  0  0  0  0  0  0  0  0  0
    5.7048   -0.9060    0.5467 H   0  0  0  0  0  0  0  0  0  0  0  0
    3.3508   -4.7817    0.1740 H   0  0  0  0  0  0  0  0  0  0  0  0
    3.2769   -3.9735   -1.2752 H   0  0  0  0  0  0  0  0  0  0  0  0
    5.5999   -2.6911    1.5877 H   0  0  0  0  0  0  0  0  0  0  0  0
    5.4881   -4.3019    1.1713 H   0  0  0  0  0  0  0  0  0  0  0  0
  1  2  1  0
  2  3  1  0
  3  4  2  0
  4  5  1  0
  5  6  2  0
  6  7  1  0
  7  8  2  0
  8  9  1  0
  7 10  1  0
 10 11  1  0
  5 12  1  0
 12 13  2  0
 12 14  1  0
 14 15  1  0
 15 16  1  0
 16 17  1  0
 17 18  1  0
 18 19  1  0
 19 20  2  3
 20 21  1  0
 20 22  1  0
  8  3  1  0
  1 23  1  0
  1 24  1  0
  1 25  1  0
  4 26  1  0
  6 27  1  0
  9 28  1  0
 11 29  1  0
 11 30  1  0
 11 31  1  0
 15 32  1  0
 15 33  1  0
 16 34  1  0
 16 35  1  0
 17 36  1  0
 17 37  1  0
 18 38  1  0
 18 39  1  0
 21 40  1  0
 21 41  1  0
 22 42  1  0
 22 43  1  0
M  END
$$$$
leonurine.sdf
     RDKit          3D

 43 43  0  0  0  0  0  0  0  0999 V2000
   -3.3230    4.6345   -2.2878 C   0  0  0  0  0  0  0  0  0  0  0  0
   -3.9961    3.8250   -1.3291 O   0  0  0  0  0  0  0  0  0  0  0  0
   -3.4079    2.6269   -1.0105 C   0  0  0  0  0  0  0  0  0  0  0  0
   -2.2173    2.1342   -1.5374 C   0  0  0  0  0  0  0  0  0  0  0  0
   -1.7267    0.8862   -1.1193 C   0  0  0  0  0  0  0  0  0  0  0  0
   -2.4349    0.1294   -0.1698 C   0  0  0  0  0  0  0  0  0  0  0  0
   -3.6308    0.6116    0.3657 C   0  0  0  0  0  0  0  0  0  0  0  0
   -4.1014    1.8591   -0.0635 C   0  0  0  0  0  0  0  0  0  0  0  0
   -5.2762    2.3538    0.4517 O   0  0  0  0  0  0  0  0  0  0  0  0
   -4.3980   -0.0404    1.2936 O   0  0  0  0  0  0  0  0  0  0  0  0
   -3.9638   -1.3211    1.7274 C   0  0  0  0  0  0  0  0  0  0  0  0
   -0.4464    0.4129   -1.7152 C   0  0  0  0  0  0  0  0  0  0  0  0
    0.1715    1.0435   -2.5579 O   0  0  0  0  0  0  0  0  0  0  0  0
   -0.0846   -0.7808   -1.1850 O   0  0  0  0  0  0  0  0  0  0  0  0
    1.1511   -1.3323   -1.6669 C   0  0  0  0  0  0  0  0  0  0  0  0
    2.3423   -0.7844   -0.8847 C   0  0  0  0  0  0  0  0  0  0  0  0
    2.2330   -1.0786    0.6162 C   0  0  0  0  0  0  0  0  0  0  0  0
    3.4455   -0.5722    1.3957 C   0  0  0  0  0  0  0  0  0  0  0  0
    4.6441   -1.3073    1.0044 N   0  0  0  0  0  0  0  0  0  0  0  0
    5.0023   -2.3453    1.6554 C   0  0  0  0  0  0  0  0  0  0  0  0
    4.4233   -2.9640    2.7072 N   0  0  0  0  0  0  0  0  0  0  0  0
    6.1317   -2.9976    1.3053 N   0  0  0  0  0  0  0  0  0  0  0  0
   -2.3335    4.9331   -1.9262 H   0  0  0  0  0  0  0  0  0  0  0  0
   -3.2559    4.1262   -3.2553 H   0  0  0  0  0  0  0  0  0  0  0  0
   -3.9142    5.5442   -2.4297 H   0  0  0  0  0  0  0  0  0  0  0  0
   -1.6484    2.6962   -2.2724 H   0  0  0  0  0  0  0  0  0  0  0  0
   -2.0395   -0.8318    0.1398 H   0  0  0  0  0  0  0  0  0  0  0  0
   -5.4058    3.2177    0.0172 H   0  0  0  0  0  0  0  0  0  0  0  0
   -4.6958   -1.6961    2.4492 H   0  0  0  0  0  0  0  0  0  0  0  0
   -2.9967   -1.2579    2.2370 H   0  0  0  0  0  0  0  0  0  0  0  0
   -3.9262   -2.0294    0.8932 H   0  0  0  0  0  0  0  0  0  0  0  0
    1.0868   -2.4184   -1.5392 H   0  0  0  0  0  0  0  0  0  0  0  0
    1.2686   -1.1478   -2.7414 H   0  0  0  0  0  0  0  0  0  0  0  0
    3.2593   -1.2245   -1.2921 H   0  0  0  0  0  0  0  0  0  0  0  0
    2.4082    0.3008   -1.0263 H   0  0  0  0  0  0  0  0  0  0  0  0
    1.3363   -0.5926    1.0188 H   0  0  0  0  0  0  0  0  0  0  0  0
    2.1119   -2.1573    0.7717 H   0  0  0  0  0  0  0  0  0  0  0  0
    3.6072    0.4910    1.1833 H   0  0  0  0  0  0  0  0  0  0  0  0
    3.2556   -0.6333    2.4735 H   0  0  0  0  0  0  0  0  0  0  0  0
    3.4553   -2.7103    2.8552 H   0  0  0  0  0  0  0  0  0  0  0  0
    4.5264   -3.9711    2.6580 H   0  0  0  0  0  0  0  0  0  0  0  0
    6.7234   -3.1871    2.1052 H   0  0  0  0  0  0  0  0  0  0  0  0
    6.6389   -2.4448    0.6198 H   0  0  0  0  0  0  0  0  0  0  0  0
  1  2  1  0
  2  3  1  0
  3  4  2  0
  4  5  1  0
  5  6  2  0
  6  7  1  0
  7  8  2  0
  8  9  1  0
  7 10  1  0
 10 11  1  0
  5 12  1  0
 12 13  2  0
 12 14  1  0
 14 15  1  0
 15 16  1  0
 16 17  1  0
 17 18  1  0
 18 19  1  0
 19 20  2  3
 20 21  1  0
 20 22  1  0
  8  3  1  0
  1 23  1  0
  1 24  1  0
  1 25  1  0
  4 26  1  0
  6 27  1  0
  9 28  1  0
 11 29  1  0
 11 30  1  0
 11 31  1  0
 15 32  1  0
 15 33  1  0
 16 34  1  0
 16 35  1  0
 17 36  1  0
 17 37  1  0
 18 38  1  0
 18 39  1  0
 21 40  1  0
 21 41  1  0
 22 42  1  0
 22 43  1  0
M  END
$$$$
leonurine.sdf
     RDKit          3D

 43 43  0  0  0  0  0  0  0  0999 V2000
   -3.1862    5.0258   -0.5498 C   0  0  0  0  0  0  0  0  0  0  0  0
   -4.1443    3.9731   -0.5886 O   0  0  0  0  0  0  0  0  0  0  0  0
   -3.6565    2.6915   -0.5387 C   0  0  0  0  0  0  0  0  0  0  0  0
   -2.3145    2.3290   -0.4645 C   0  0  0  0  0  0  0  0  0  0  0  0
   -1.9543    0.9721   -0.4198 C   0  0  0  0  0  0  0  0  0  0  0  0
   -2.9450   -0.0246   -0.4486 C   0  0  0  0  0  0  0  0  0  0  0  0
   -4.2946    0.3256   -0.5228 C   0  0  0  0  0  0  0  0  0  0  0  0
   -4.6322    1.6843   -0.5679 C   0  0  0  0  0  0  0  0  0  0  0  0
   -5.9550    2.0515   -0.6421 O   0  0  0  0  0  0  0  0  0  0  0  0
   -5.3378   -0.5606   -0.5574 O   0  0  0  0  0  0  0  0  0  0  0  0
   -5.0307   -1.9457   -0.4913 C   0  0  0  0  0  0  0  0  0  0  0  0
   -0.5034    0.6454   -0.3419 C   0  0  0  0  0  0  0  0  0  0  0  0
    0.3737    1.4941   -0.3148 O   0  0  0  0  0  0  0  0  0  0  0  0
   -0.3129   -0.6966   -0.3048 O   0  0  0  0  0  0  0  0  0  0  0  0
    1.0551   -1.1288   -0.2185 C   0  0  0  0  0  0  0  0  0  0  0  0
    1.4827   -1.1995    1.2447 C   0  0  0  0  0  0  0  0  0  0  0  0
    2.9082   -1.7159    1.4295 C   0  0  0  0  0  0  0  0  0  0  0  0
    3.9722   -0.7120    0.9864 C   0  0  0  0  0  0  0  0  0  0  0  0
    5.2960   -1.2546    1.2735 N   0  0  0  0  0  0  0  0  0  0  0  0
    5.9207   -1.9411    0.3976 C   0  0  0  0  0  0  0  0  0  0  0  0
    7.1367   -2.4492    0.6932 N   0  0  0  0  0  0  0  0  0  0  0  0
    5.5698   -2.3012   -0.8564 N   0  0  0  0  0  0  0  0  0  0  0  0
   -3.7309    5.9739   -0.5922 H   0  0  0  0  0  0  0  0  0  0  0  0
   -2.6192    5.0086    0.3867 H   0  0  0  0  0  0  0  0  0  0  0  0
   -2.5205    4.9847   -1.4182 H   0  0  0  0  0  0  0  0  0  0  0  0
   -1.5273    3.0769   -0.4400 H   0  0  0  0  0  0  0  0  0  0  0  0
   -2.6467   -1.0667   -0.4128 H   0  0  0  0  0  0  0  0  0  0  0  0
   -5.9526    3.0270   -0.6601 H   0  0  0  0  0  0  0  0  0  0  0  0
   -4.4346   -2.2592   -1.3546 H   0  0  0  0  0  0  0  0  0  0  0  0
   -4.5275   -2.1945    0.4488 H   0  0  0  0  0  0  0  0  0  0  0  0
   -5.9740   -2.4995   -0.5200 H   0  0  0  0  0  0  0  0  0  0  0  0
    1.1004   -2.1258   -0.6700 H   0  0  0  0  0  0  0  0  0  0  0  0
    1.7048   -0.4797   -0.8155 H   0  0  0  0  0  0  0  0  0  0  0  0
    1.3706   -0.2181    1.7210 H   0  0  0  0  0  0  0  0  0  0  0  0
    0.7897   -1.8637    1.7767 H   0  0  0  0  0  0  0  0  0  0  0  0
    3.0331   -2.6635    0.8915 H   0  0  0  0  0  0  0  0  0  0  0  0
    3.0603   -1.9443    2.4922 H   0  0  0  0  0  0  0  0  0  0  0  0
    3.8567   -0.4291   -0.0640 H   0  0  0  0  0  0  0  0  0  0  0  0
    3.8581    0.2160    1.5589 H   0  0  0  0  0  0  0  0  0  0  0  0
    7.2049   -3.4325    0.4612 H   0  0  0  0  0  0  0  0  0  0  0  0
    7.3275   -2.3083    1.6813 H   0  0  0  0  0  0  0  0  0  0  0  0
    6.3675   -2.3035   -1.4823 H   0  0  0  0  0  0  0  0  0  0  0  0
    4.8121   -1.7614   -1.2510 H   0  0  0  0  0  0  0  0  0  0  0  0
  1  2  1  0
  2  3  1  0
  3  4  2  0
  4  5  1  0
  5  6  2  0
  6  7  1  0
  7  8  2  0
  8  9  1  0
  7 10  1  0
 10 11  1  0
  5 12  1  0
 12 13  2  0
 12 14  1  0
 14 15  1  0
 15 16  1  0
 16 17  1  0
 17 18  1  0
 18 19  1  0
 19 20  2  3
 20 21  1  0
 20 22  1  0
  8  3  1  0
  1 23  1  0
  1 24  1  0
  1 25  1  0
  4 26  1  0
  6 27  1  0
  9 28  1  0
 11 29  1  0
 11 30  1  0
 11 31  1  0
 15 32  1  0
 15 33  1  0
 16 34  1  0
 16 35  1  0
 17 36  1  0
 17 37  1  0
 18 38  1  0
 18 39  1  0
 21 40  1  0
 21 41  1  0
 22 42  1  0
 22 43  1  0
M  END
$$$$
leonurine.sdf
     RDKit          3D

 43 43  0  0  0  0  0  0  0  0999 V2000
   -3.5163    5.0303    0.1254 C   0  0  0  0  0  0  0  0  0  0  0  0
   -4.4065    3.9203    0.1780 O   0  0  0  0  0  0  0  0  0  0  0  0
   -3.8711    2.6859   -0.0915 C   0  0  0  0  0  0  0  0  0  0  0  0
   -2.5404    2.4214   -0.4032 C   0  0  0  0  0  0  0  0  0  0  0  0
   -2.1264    1.1035   -0.6577 C   0  0  0  0  0  0  0  0  0  0  0  0
   -3.0520    0.0473   -0.5996 C   0  0  0  0  0  0  0  0  0  0  0  0
   -4.3897    0.2989   -0.2883 C   0  0  0  0  0  0  0  0  0  0  0  0
   -4.7813    1.6201   -0.0370 C   0  0  0  0  0  0  0  0  0  0  0  0
   -6.0934    1.8906    0.2723 O   0  0  0  0  0  0  0  0  0  0  0  0
   -5.3713   -0.6519   -0.2040 O   0  0  0  0  0  0  0  0  0  0  0  0
   -5.0107   -1.9993   -0.4716 C   0  0  0  0  0  0  0  0  0  0  0  0
   -0.6899    0.8819   -0.9832 C   0  0  0  0  0  0  0  0  0  0  0  0
    0.1308    1.7842   -1.0327 O   0  0  0  0  0  0  0  0  0  0  0  0
   -0.4446   -0.4330   -1.2018 O   0  0  0  0  0  0  0  0  0  0  0  0
    0.9127   -0.7715   -1.5317 C   0  0  0  0  0  0  0  0  0  0  0  0
    1.7212   -0.9845   -0.2560 C   0  0  0  0  0  0  0  0  0  0  0  0
    3.1475   -1.4288   -0.5667 C   0  0  0  0  0  0  0  0  0  0  0  0
    3.9617   -1.6282    0.7103 C   0  0  0  0  0  0  0  0  0  0  0  0
    5.2950   -2.0841    0.3305 N   0  0  0  0  0  0  0  0  0  0  0  0
    6.1736   -2.2183    1.2490 C   0  0  0  0  0  0  0  0  0  0  0  0
    6.0786   -2.0129    2.5809 N   0  0  0  0  0  0  0  0  0  0  0  0
    7.4241   -2.6160    0.9314 N   0  0  0  0  0  0  0  0  0  0  0  0
   -3.0976    5.1527   -0.8789 H   0  0  0  0  0  0  0  0  0  0  0  0
   -2.7255    4.9371    0.8770 H   0  0  0  0  0  0  0  0  0  0  0  0
   -4.0925    5.9309    0.3582 H   0  0  0  0  0  0  0  0  0  0  0  0
   -1.8028    3.2169   -0.4554 H   0  0  0  0  0  0  0  0  0  0  0  0
   -2.7126   -0.9634   -0.7989 H   0  0  0  0  0  0  0  0  0  0  0  0
   -6.1348    2.8565    0.4029 H   0  0  0  0  0  0  0  0  0  0  0  0
   -4.6453   -2.1143   -1.4974 H   0  0  0  0  0  0  0  0  0  0  0  0
   -5.9103   -2.6136   -0.3683 H   0  0  0  0  0  0  0  0  0  0  0  0
   -4.2752   -2.3623    0.2538 H   0  0  0  0  0  0  0  0  0  0  0  0
    0.8733   -1.7000   -2.1118 H   0  0  0  0  0  0  0  0  0  0  0  0
    1.3628   -0.0086   -2.1782 H   0  0  0  0  0  0  0  0  0  0  0  0
    1.2184   -1.7315    0.3708 H   0  0  0  0  0  0  0  0  0  0  0  0
    1.7347   -0.0595    0.3328 H   0  0  0  0  0  0  0  0  0  0  0  0
    3.6402   -0.6821   -1.2020 H   0  0  0  0  0  0  0  0  0  0  0  0
    3.1275   -2.3645   -1.1395 H   0  0  0  0  0  0  0  0  0  0  0  0
    4.0153   -0.6805    1.2596 H   0  0  0  0  0  0  0  0  0  0  0  0
    3.4715   -2.3768    1.3440 H   0  0  0  0  0  0  0  0  0  0  0  0
    6.6119   -2.6944    3.1087 H   0  0  0  0  0  0  0  0  0  0  0  0
    5.1286   -1.9560    2.9245 H   0  0  0  0  0  0  0  0  0  0  0  0
    7.5314   -2.6139   -0.0790 H   0  0  0  0  0  0  0  0  0  0  0  0
    8.1293   -2.0283    1.3590 H   0  0  0  0  0  0  0  0  0  0  0  0
  1  2  1  0
  2  3  1  0
  3  4  2  0
  4  5  1  0
  5  6  2  0
  6  7  1  0
  7  8  2  0
  8  9  1  0
  7 10  1  0
 10 11  1  0
  5 12  1  0
 12 13  2  0
 12 14  1  0
 14 15  1  0
 15 16  1  0
 16 17  1  0
 17 18  1  0
 18 19  1  0
 19 20  2  3
 20 21  1  0
 20 22  1  0
  8  3  1  0
  1 23  1  0
  1 24  1  0
  1 25  1  0
  4 26  1  0
  6 27  1  0
  9 28  1  0
 11 29  1  0
 11 30  1  0
 11 31  1  0
 15 32  1  0
 15 33  1  0
 16 34  1  0
 16 35  1  0
 17 36  1  0
 17 37  1  0
 18 38  1  0
 18 39  1  0
 21 40  1  0
 21 41  1  0
 22 42  1  0
 22 43  1  0
M  END
$$$$
leonurine.sdf
     RDKit          3D

 43 43  0  0  0  0  0  0  0  0999 V2000
   -2.8059    4.9291    0.4617 C   0  0  0  0  0  0  0  0  0  0  0  0
   -3.7347    3.8546    0.4943 O   0  0  0  0  0  0  0  0  0  0  0  0
   -3.2901    2.6205    0.1029 C   0  0  0  0  0  0  0  0  0  0  0  0
   -1.9905    2.3294   -0.3128 C   0  0  0  0  0  0  0  0  0  0  0  0
   -1.6387    1.0230   -0.6949 C   0  0  0  0  0  0  0  0  0  0  0  0
   -2.5949   -0.0051   -0.6602 C   0  0  0  0  0  0  0  0  0  0  0  0
   -3.8961    0.2719   -0.2464 C   0  0  0  0  0  0  0  0  0  0  0  0
   -4.2288    1.5820    0.1306 C   0  0  0  0  0  0  0  0  0  0  0  0
   -5.5160    1.8429    0.5374 O   0  0  0  0  0  0  0  0  0  0  0  0
   -4.9256   -0.6321   -0.1640 O   0  0  0  0  0  0  0  0  0  0  0  0
   -4.6349   -1.9746   -0.5374 C   0  0  0  0  0  0  0  0  0  0  0  0
   -0.2321    0.7827   -1.1238 C   0  0  0  0  0  0  0  0  0  0  0  0
    0.6248    1.6515   -1.1215 O   0  0  0  0  0  0  0  0  0  0  0  0
   -0.0644   -0.5095   -1.4941 O   0  0  0  0  0  0  0  0  0  0  0  0
    1.2489   -0.8932   -1.9344 C   0  0  0  0  0  0  0  0  0  0  0  0
    1.8994   -1.8097   -0.9023 C   0  0  0  0  0  0  0  0  0  0  0  0
    2.2194   -1.0806    0.4069 C   0  0  0  0  0  0  0  0  0  0  0  0
    2.8919   -1.9914    1.4331 C   0  0  0  0  0  0  0  0  0  0  0  0
    4.1830   -2.4680    0.9469 N   0  0  0  0  0  0  0  0  0  0  0  0
    5.2302   -1.7528    1.0958 C   0  0  0  0  0  0  0  0  0  0  0  0
    5.3893   -0.5297    1.6457 N   0  0  0  0  0  0  0  0  0  0  0  0
    6.4180   -2.2048    0.6392 N   0  0  0  0  0  0  0  0  0  0  0  0
   -1.9731    4.7519    1.1503 H   0  0  0  0  0  0  0  0  0  0  0  0
   -3.3266    5.8317    0.7956 H   0  0  0  0  0  0  0  0  0  0  0  0
   -2.4464    5.1100   -0.5566 H   0  0  0  0  0  0  0  0  0  0  0  0
   -1.2273    3.1016   -0.3496 H   0  0  0  0  0  0  0  0  0  0  0  0
   -2.3069   -1.0079   -0.9561 H   0  0  0  0  0  0  0  0  0  0  0  0
   -5.9854    0.9900    0.4771 H   0  0  0  0  0  0  0  0  0  0  0  0
   -4.3364   -2.0354   -1.5891 H   0  0  0  0  0  0  0  0  0  0  0  0
   -5.5514   -2.5602   -0.4168 H   0  0  0  0  0  0  0  0  0  0  0  0
   -3.8728   -2.4095    0.1176 H   0  0  0  0  0  0  0  0  0  0  0  0
    1.1147   -1.4451   -2.8710 H   0  0  0  0  0  0  0  0  0  0  0  0
    1.8893   -0.0330   -2.1597 H   0  0  0  0  0  0  0  0  0  0  0  0
    1.2260   -2.6479   -0.6858 H   0  0  0  0  0  0  0  0  0  0  0  0
    2.8173   -2.2237   -1.3343 H   0  0  0  0  0  0  0  0  0  0  0  0
    1.2930   -0.6962    0.8489 H   0  0  0  0  0  0  0  0  0  0  0  0
    2.8580   -0.2147    0.1964 H   0  0  0  0  0  0  0  0  0  0  0  0
    2.2553   -2.8638    1.6218 H   0  0  0  0  0  0  0  0  0  0  0  0
    2.9825   -1.4792    2.3977 H   0  0  0  0  0  0  0  0  0  0  0  0
    4.6048   -0.2057    2.1954 H   0  0  0  0  0  0  0  0  0  0  0  0
    6.2540   -0.4544    2.1688 H   0  0  0  0  0  0  0  0  0  0  0  0
    6.2704   -3.0413    0.0824 H   0  0  0  0  0  0  0  0  0  0  0  0
    6.9091   -1.5030    0.0990 H   0  0  0  0  0  0  0  0  0  0  0  0
  1  2  1  0
  2  3  1  0
  3  4  2  0
  4  5  1  0
  5  6  2  0
  6  7  1  0
  7  8  2  0
  8  9  1  0
  7 10  1  0
 10 11  1  0
  5 12  1  0
 12 13  2  0
 12 14  1  0
 14 15  1  0
 15 16  1  0
 16 17  1  0
 17 18  1  0
 18 19  1  0
 19 20  2  3
 20 21  1  0
 20 22  1  0
  8  3  1  0
  1 23  1  0
  1 24  1  0
  1 25  1  0
  4 26  1  0
  6 27  1  0
  9 28  1  0
 11 29  1  0
 11 30  1  0
 11 31  1  0
 15 32  1  0
 15 33  1  0
 16 34  1  0
 16 35  1  0
 17 36  1  0
 17 37  1  0
 18 38  1  0
 18 39  1  0
 21 40  1  0
 21 41  1  0
 22 42  1  0
 22 43  1  0
M  END
$$$$
leonurine.sdf
     RDKit          3D

 43 43  0  0  0  0  0  0  0  0999 V2000
   -2.8791    4.7152    0.0118 C   0  0  0  0  0  0  0  0  0  0  0  0
   -2.9968    3.6562   -0.9330 O   0  0  0  0  0  0  0  0  0  0  0  0
   -2.4749    2.4411   -0.5671 C   0  0  0  0  0  0  0  0  0  0  0  0
   -1.8227    2.1579    0.6301 C   0  0  0  0  0  0  0  0  0  0  0  0
   -1.3298    0.8659    0.8690 C   0  0  0  0  0  0  0  0  0  0  0  0
   -1.5071   -0.1498   -0.0875 C   0  0  0  0  0  0  0  0  0  0  0  0
   -2.1542    0.1221   -1.2927 C   0  0  0  0  0  0  0  0  0  0  0  0
   -2.6265    1.4207   -1.5187 C   0  0  0  0  0  0  0  0  0  0  0  0
   -3.2599    1.7131   -2.7030 O   0  0  0  0  0  0  0  0  0  0  0  0
   -2.3505   -0.7850   -2.2990 O   0  0  0  0  0  0  0  0  0  0  0  0
   -2.0488   -2.1470   -2.0277 C   0  0  0  0  0  0  0  0  0  0  0  0
   -0.5923    0.6274    2.1407 C   0  0  0  0  0  0  0  0  0  0  0  0
   -0.5170    1.4393    3.0473 O   0  0  0  0  0  0  0  0  0  0  0  0
    0.0120   -0.5828    2.0981 O   0  0  0  0  0  0  0  0  0  0  0  0
    0.9072   -0.8612    3.1817 C   0  0  0  0  0  0  0  0  0  0  0  0
    1.6780   -2.1399    2.8600 C   0  0  0  0  0  0  0  0  0  0  0  0
    2.7496   -1.9824    1.7719 C   0  0  0  0  0  0  0  0  0  0  0  0
    2.2161   -1.5097    0.4190 C   0  0  0  0  0  0  0  0  0  0  0  0
    3.2682   -1.6777   -0.5799 N   0  0  0  0  0  0  0  0  0  0  0  0
    3.0954   -1.1489   -1.7315 C   0  0  0  0  0  0  0  0  0  0  0  0
    4.0550   -1.2667   -2.6740 N   0  0  0  0  0  0  0  0  0  0  0  0
    2.0590   -0.4302   -2.2162 N   0  0  0  0  0  0  0  0  0  0  0  0
   -1.8284    4.9560    0.2041 H   0  0  0  0  0  0  0  0  0  0  0  0
   -3.3502    5.6025   -0.4218 H   0  0  0  0  0  0  0  0  0  0  0  0
   -3.4084    4.4765    0.9401 H   0  0  0  0  0  0  0  0  0  0  0  0
   -1.6717    2.9204    1.3887 H   0  0  0  0  0  0  0  0  0  0  0  0
   -1.1274   -1.1441    0.1213 H   0  0  0  0  0  0  0  0  0  0  0  0
   -3.5074    2.6550   -2.6395 H   0  0  0  0  0  0  0  0  0  0  0  0
   -0.9725   -2.2881   -1.8842 H   0  0  0  0  0  0  0  0  0  0  0  0
   -2.3480   -2.7363   -2.8998 H   0  0  0  0  0  0  0  0  0  0  0  0
   -2.6146   -2.5159   -1.1657 H   0  0  0  0  0  0  0  0  0  0  0  0
    1.6000   -0.0257    3.3354 H   0  0  0  0  0  0  0  0  0  0  0  0
    0.3133   -1.0126    4.0900 H   0  0  0  0  0  0  0  0  0  0  0  0
    2.1730   -2.4899    3.7736 H   0  0  0  0  0  0  0  0  0  0  0  0
    0.9746   -2.9219    2.5487 H   0  0  0  0  0  0  0  0  0  0  0  0
    3.2486   -2.9521    1.6460 H   0  0  0  0  0  0  0  0  0  0  0  0
    3.5233   -1.2853    2.1179 H   0  0  0  0  0  0  0  0  0  0  0  0
    1.9284   -0.4554    0.4913 H   0  0  0  0  0  0  0  0  0  0  0  0
    1.3422   -2.1070    0.1350 H   0  0  0  0  0  0  0  0  0  0  0  0
    4.8924   -1.6616   -2.2559 H   0  0  0  0  0  0  0  0  0  0  0  0
    4.2666   -0.3798   -3.1145 H   0  0  0  0  0  0  0  0  0  0  0  0
    1.2046   -0.4957   -1.6788 H   0  0  0  0  0  0  0  0  0  0  0  0
    1.8807   -0.6166   -3.1967 H   0  0  0  0  0  0  0  0  0  0  0  0
  1  2  1  0
  2  3  1  0
  3  4  2  0
  4  5  1  0
  5  6  2  0
  6  7  1  0
  7  8  2  0
  8  9  1  0
  7 10  1  0
 10 11  1  0
  5 12  1  0
 12 13  2  0
 12 14  1  0
 14 15  1  0
 15 16  1  0
 16 17  1  0
 17 18  1  0
 18 19  1  0
 19 20  2  3
 20 21  1  0
 20 22  1  0
  8  3  1  0
  1 23  1  0
  1 24  1  0
  1 25  1  0
  4 26  1  0
  6 27  1  0
  9 28  1  0
 11 29  1  0
 11 30  1  0
 11 31  1  0
 15 32  1  0
 15 33  1  0
 16 34  1  0
 16 35  1  0
 17 36  1  0
 17 37  1  0
 18 38  1  0
 18 39  1  0
 21 40  1  0
 21 41  1  0
 22 42  1  0
 22 43  1  0
M  END
$$$$
