VVCTY.sdf
     RDKit          3D

 81 81  0  0  0  0  0  0  0  0999 V2000
    8.3510   -1.9981   -0.7147 C   0  0  0  0  0  0  0  0  0  0  0  0
    7.1167   -2.5199    0.0288 C   0  0  0  0  0  0  0  0  0  0  0  0
    7.1195   -4.0529    0.0244 C   0  0  0  0  0  0  0  0  0  0  0  0
    7.0167   -1.9103    1.4477 C   0  0  2  0  0  0  0  0  0  0  0  0
    8.1395   -2.3108    2.3230 N   0  0  0  0  0  0  0  0  0  0  0  0
    5.6736   -2.2655    2.1330 C   0  0  0  0  0  0  0  0  0  0  0  0
    5.6056   -2.9873    3.1267 O   0  0  0  0  0  0  0  0  0  0  0  0
    4.5677   -1.6964    1.5529 N   0  0  0  0  0  0  0  0  0  0  0  0
    3.2080   -1.9352    2.0377 C   0  0  2  0  0  0  0  0  0  0  0  0
    2.2809   -1.7335    0.8195 C   0  0  0  0  0  0  0  0  0  0  0  0
    2.6088   -1.0305   -0.1388 O   0  0  0  0  0  0  0  0  0  0  0  0
    1.0703   -2.3848    0.8755 N   0  0  0  0  0  0  0  0  0  0  0  0
    0.0490   -2.1250   -0.1386 C   0  0  1  0  0  0  0  0  0  0  0  0
   -0.9421   -3.2830   -0.2971 C   0  0  0  0  0  0  0  0  0  0  0  0
   -0.1376   -4.8317   -0.8280 S   0  0  0  0  0  0  0  0  0  0  0  0
   -0.7439   -0.8799    0.2953 C   0  0  0  0  0  0  0  0  0  0  0  0
   -0.9305   -0.5926    1.4762 O   0  0  0  0  0  0  0  0  0  0  0  0
   -1.2701   -0.1444   -0.7356 N   0  0  0  0  0  0  0  0  0  0  0  0
   -2.0923    1.0480   -0.5221 C   0  0  2  0  0  0  0  0  0  0  0  0
   -2.7765    1.3693   -1.8677 C   0  0  0  0  0  0  0  0  0  0  0  0
   -2.6102    0.6662   -2.8662 O   0  0  0  0  0  0  0  0  0  0  0  0
   -3.6072    2.4584   -1.8592 N   0  0  0  0  0  0  0  0  0  0  0  0
   -4.3192    2.9229   -3.0493 C   0  0  1  0  0  0  0  0  0  0  0  0
   -5.5838    2.0999   -3.3479 C   0  0  0  0  0  0  0  0  0  0  0  0
   -6.6385    2.1413   -2.2627 C   0  0  0  0  0  0  0  0  0  0  0  0
   -6.5816    1.2489   -1.1825 C   0  0  0  0  0  0  0  0  0  0  0  0
   -7.5444    1.2965   -0.1738 C   0  0  0  0  0  0  0  0  0  0  0  0
   -8.5677    2.2329   -0.2425 C   0  0  0  0  0  0  0  0  0  0  0  0
   -9.4871    2.2442    0.7642 O   0  0  0  0  0  0  0  0  0  0  0  0
   -8.6468    3.1243   -1.3070 C   0  0  0  0  0  0  0  0  0  0  0  0
   -7.6825    3.0767   -2.3166 C   0  0  0  0  0  0  0  0  0  0  0  0
   -4.6148    4.4154   -2.9113 C   0  0  0  0  0  0  0  0  0  0  0  0
   -4.3069    5.1331   -1.9708 O   0  0  0  0  0  0  0  0  0  0  0  0
   -5.2258    4.9471   -3.9904 O   0  0  0  0  0  0  0  0  0  0  0  0
   -1.2949    2.2452    0.0414 C   0  0  1  0  0  0  0  0  0  0  0  0
   -0.2345    2.7838   -0.9136 C   0  0  0  0  0  0  0  0  0  0  0  0
   -2.1966    3.3068    0.3825 O   0  0  0  0  0  0  0  0  0  0  0  0
    2.8838   -1.0210    3.2423 C   0  0  0  0  0  0  0  0  0  0  0  0
    2.7284    0.4529    2.8544 C   0  0  0  0  0  0  0  0  0  0  0  0
    1.6572   -1.4908    4.0257 C   0  0  0  0  0  0  0  0  0  0  0  0
    8.3510   -0.9035   -0.7474 H   0  0  0  0  0  0  0  0  0  0  0  0
    8.3600   -2.3609   -1.7483 H   0  0  0  0  0  0  0  0  0  0  0  0
    9.2810   -2.3258   -0.2386 H   0  0  0  0  0  0  0  0  0  0  0  0
    6.2379   -2.2008   -0.5465 H   0  0  0  0  0  0  0  0  0  0  0  0
    8.0070   -4.4607    0.5189 H   0  0  0  0  0  0  0  0  0  0  0  0
    7.1128   -4.4313   -1.0038 H   0  0  0  0  0  0  0  0  0  0  0  0
    6.2330   -4.4535    0.5259 H   0  0  0  0  0  0  0  0  0  0  0  0
    7.0473   -0.8160    1.3670 H   0  0  0  0  0  0  0  0  0  0  0  0
    7.9972   -1.8640    3.2318 H   0  0  0  0  0  0  0  0  0  0  0  0
    8.0195   -3.3049    2.5373 H   0  0  0  0  0  0  0  0  0  0  0  0
    4.6576   -1.1139    0.7250 H   0  0  0  0  0  0  0  0  0  0  0  0
    3.1525   -2.9882    2.3409 H   0  0  0  0  0  0  0  0  0  0  0  0
    0.7431   -2.7065    1.7785 H   0  0  0  0  0  0  0  0  0  0  0  0
    0.5406   -1.9109   -1.0957 H   0  0  0  0  0  0  0  0  0  0  0  0
   -1.4567   -3.4839    0.6494 H   0  0  0  0  0  0  0  0  0  0  0  0
   -1.7098   -3.0316   -1.0369 H   0  0  0  0  0  0  0  0  0  0  0  0
    0.4121   -4.3516   -1.9538 H   0  0  0  0  0  0  0  0  0  0  0  0
   -1.1325   -0.4217   -1.7049 H   0  0  0  0  0  0  0  0  0  0  0  0
   -2.8900    0.7781    0.1821 H   0  0  0  0  0  0  0  0  0  0  0  0
   -3.5802    3.0788   -1.0437 H   0  0  0  0  0  0  0  0  0  0  0  0
   -3.6246    2.8214   -3.8931 H   0  0  0  0  0  0  0  0  0  0  0  0
   -6.0349    2.4396   -4.2894 H   0  0  0  0  0  0  0  0  0  0  0  0
   -5.3099    1.0509   -3.5220 H   0  0  0  0  0  0  0  0  0  0  0  0
   -5.7875    0.5086   -1.1202 H   0  0  0  0  0  0  0  0  0  0  0  0
   -7.4964    0.6046    0.6622 H   0  0  0  0  0  0  0  0  0  0  0  0
  -10.1324    2.9474    0.5858 H   0  0  0  0  0  0  0  0  0  0  0  0
   -9.4456    3.8562   -1.3695 H   0  0  0  0  0  0  0  0  0  0  0  0
   -7.7549    3.7735   -3.1490 H   0  0  0  0  0  0  0  0  0  0  0  0
   -5.3075    5.8987   -3.7659 H   0  0  0  0  0  0  0  0  0  0  0  0
   -0.8017    1.9447    0.9725 H   0  0  0  0  0  0  0  0  0  0  0  0
    0.3183    3.6023   -0.4392 H   0  0  0  0  0  0  0  0  0  0  0  0
    0.4817    2.0082   -1.2001 H   0  0  0  0  0  0  0  0  0  0  0  0
   -0.6847    3.2035   -1.8191 H   0  0  0  0  0  0  0  0  0  0  0  0
   -1.6796    3.9849    0.8558 H   0  0  0  0  0  0  0  0  0  0  0  0
    3.7312   -1.0774    3.9393 H   0  0  0  0  0  0  0  0  0  0  0  0
    1.8538    0.6146    2.2158 H   0  0  0  0  0  0  0  0  0  0  0  0
    2.6024    1.0727    3.7489 H   0  0  0  0  0  0  0  0  0  0  0  0
    3.6131    0.8180    2.3228 H   0  0  0  0  0  0  0  0  0  0  0  0
    1.5735   -0.9381    4.9681 H   0  0  0  0  0  0  0  0  0  0  0  0
    1.7318   -2.5548    4.2723 H   0  0  0  0  0  0  0  0  0  0  0  0
    0.7294   -1.3272    3.4722 H   0  0  0  0  0  0  0  0  0  0  0  0
  1  2  1  0
  2  3  1  0
  2  4  1  0
  4  5  1  0
  4  6  1  0
  6  7  2  0
  6  8  1  0
  8  9  1  0
  9 10  1  0
 10 11  2  0
 10 12  1  0
 12 13  1  0
 13 14  1  0
 14 15  1  0
 13 16  1  0
 16 17  2  0
 16 18  1  0
 18 19  1  0
 19 20  1  0
 20 21  2  0
 20 22  1  0
 22 23  1  0
 23 24  1  0
 24 25  1  0
 25 26  2  0
 26 27  1  0
 27 28  2  0
 28 29  1  0
 28 30  1  0
 30 31  2  0
 23 32  1  0
 32 33  2  0
 32 34  1  0
 19 35  1  0
 35 36  1  0
 35 37  1  0
  9 38  1  0
 38 39  1  0
 38 40  1  0
 31 25  1  0
  1 41  1  0
  1 42  1  0
  1 43  1  0
  2 44  1  0
  3 45  1  0
  3 46  1  0
  3 47  1  0
  4 48  1  6
  5 49  1  0
  5 50  1  0
  8 51  1  0
  9 52  1  1
 12 53  1  0
 13 54  1  6
 14 55  1  0
 14 56  1  0
 15 57  1  0
 18 58  1  0
 19 59  1  1
 22 60  1  0
 23 61  1  6
 24 62  1  0
 24 63  1  0
 26 64  1  0
 27 65  1  0
 29 66  1  0
 30 67  1  0
 31 68  1  0
 34 69  1  0
 35 70  1  1
 36 71  1  0
 36 72  1  0
 36 73  1  0
 37 74  1  0
 38 75  1  0
 39 76  1  0
 39 77  1  0
 39 78  1  0
 40 79  1  0
 40 80  1  0
 40 81  1  0
M  END
$$$$
VVCTY.sdf
     RDKit          3D

 81 81  0  0  0  0  0  0  0  0999 V2000
    9.2425   -2.7713   -0.4187 C   0  0  0  0  0  0  0  0  0  0  0  0
    7.8367   -3.2310   -0.0093 C   0  0  0  0  0  0  0  0  0  0  0  0
    7.0649   -3.6244   -1.2770 C   0  0  0  0  0  0  0  0  0  0  0  0
    7.0754   -2.1425    0.7841 C   0  0  2  0  0  0  0  0  0  0  0  0
    7.8754   -1.6450    1.9279 N   0  0  0  0  0  0  0  0  0  0  0  0
    5.7277   -2.6565    1.3585 C   0  0  0  0  0  0  0  0  0  0  0  0
    5.4343   -3.8421    1.4701 O   0  0  0  0  0  0  0  0  0  0  0  0
    4.9167   -1.6295    1.8163 N   0  0  0  0  0  0  0  0  0  0  0  0
    3.5294   -1.9010    2.1870 C   0  0  2  0  0  0  0  0  0  0  0  0
    2.6522   -1.6640    0.9372 C   0  0  0  0  0  0  0  0  0  0  0  0
    3.0317   -0.9848   -0.0178 O   0  0  0  0  0  0  0  0  0  0  0  0
    1.3984   -2.2343    0.9923 N   0  0  0  0  0  0  0  0  0  0  0  0
    0.3752   -1.8435    0.0262 C   0  0  1  0  0  0  0  0  0  0  0  0
   -0.6618   -2.9501   -0.2039 C   0  0  0  0  0  0  0  0  0  0  0  0
   -1.4608   -3.5484    1.3271 S   0  0  0  0  0  0  0  0  0  0  0  0
   -0.2883   -0.5358    0.5070 C   0  0  0  0  0  0  0  0  0  0  0  0
   -0.2106   -0.1323    1.6668 O   0  0  0  0  0  0  0  0  0  0  0  0
   -0.9811    0.1483   -0.4614 N   0  0  0  0  0  0  0  0  0  0  0  0
   -1.7828    1.3384   -0.1615 C   0  0  2  0  0  0  0  0  0  0  0  0
   -3.0409    1.2526   -1.0502 C   0  0  0  0  0  0  0  0  0  0  0  0
   -3.1283    0.4389   -1.9712 O   0  0  0  0  0  0  0  0  0  0  0  0
   -4.0633    2.1148   -0.7157 N   0  0  0  0  0  0  0  0  0  0  0  0
   -5.2175    2.3013   -1.6100 C   0  0  1  0  0  0  0  0  0  0  0  0
   -6.4999    2.4739   -0.7884 C   0  0  0  0  0  0  0  0  0  0  0  0
   -7.7553    2.5223   -1.6255 C   0  0  0  0  0  0  0  0  0  0  0  0
   -8.2536    1.3575   -2.2280 C   0  0  0  0  0  0  0  0  0  0  0  0
   -9.4068    1.4032   -3.0147 C   0  0  0  0  0  0  0  0  0  0  0  0
  -10.0624    2.6158   -3.1978 C   0  0  0  0  0  0  0  0  0  0  0  0
  -11.1903    2.7066   -3.9583 O   0  0  0  0  0  0  0  0  0  0  0  0
   -9.5846    3.7790   -2.6076 C   0  0  0  0  0  0  0  0  0  0  0  0
   -8.4321    3.7344   -1.8221 C   0  0  0  0  0  0  0  0  0  0  0  0
   -4.9349    3.5674   -2.4133 C   0  0  0  0  0  0  0  0  0  0  0  0
   -4.4351    4.5905   -1.9644 O   0  0  0  0  0  0  0  0  0  0  0  0
   -5.2954    3.4834   -3.7064 O   0  0  0  0  0  0  0  0  0  0  0  0
   -1.0068    2.6462   -0.4236 C   0  0  1  0  0  0  0  0  0  0  0  0
    0.0237    2.9506    0.6585 C   0  0  0  0  0  0  0  0  0  0  0  0
   -0.3299    2.5896   -1.6842 O   0  0  0  0  0  0  0  0  0  0  0  0
    3.0577   -1.0350    3.3771 C   0  0  0  0  0  0  0  0  0  0  0  0
    3.8040   -1.4204    4.6581 C   0  0  0  0  0  0  0  0  0  0  0  0
    3.1963    0.4707    3.1279 C   0  0  0  0  0  0  0  0  0  0  0  0
    9.2018   -1.8471   -1.0052 H   0  0  0  0  0  0  0  0  0  0  0  0
    9.8770   -2.5942    0.4555 H   0  0  0  0  0  0  0  0  0  0  0  0
    9.7390   -3.5354   -1.0269 H   0  0  0  0  0  0  0  0  0  0  0  0
    7.9438   -4.1300    0.6121 H   0  0  0  0  0  0  0  0  0  0  0  0
    7.6060   -4.3960   -1.8355 H   0  0  0  0  0  0  0  0  0  0  0  0
    6.9286   -2.7628   -1.9397 H   0  0  0  0  0  0  0  0  0  0  0  0
    6.0759   -4.0281   -1.0421 H   0  0  0  0  0  0  0  0  0  0  0  0
    6.8629   -1.2945    0.1211 H   0  0  0  0  0  0  0  0  0  0  0  0
    7.2812   -1.0492    2.5060 H   0  0  0  0  0  0  0  0  0  0  0  0
    8.1095   -2.4440    2.5205 H   0  0  0  0  0  0  0  0  0  0  0  0
    5.0686   -0.7327    1.3662 H   0  0  0  0  0  0  0  0  0  0  0  0
    3.4304   -2.9607    2.4536 H   0  0  0  0  0  0  0  0  0  0  0  0
    1.0451   -2.5004    1.9060 H   0  0  0  0  0  0  0  0  0  0  0  0
    0.8665   -1.6251   -0.9304 H   0  0  0  0  0  0  0  0  0  0  0  0
   -0.1747   -3.8150   -0.6670 H   0  0  0  0  0  0  0  0  0  0  0  0
   -1.4509   -2.6120   -0.8832 H   0  0  0  0  0  0  0  0  0  0  0  0
   -2.2179   -4.4915    0.7458 H   0  0  0  0  0  0  0  0  0  0  0  0
   -1.1444   -0.2627   -1.3775 H   0  0  0  0  0  0  0  0  0  0  0  0
   -2.1192    1.2941    0.8816 H   0  0  0  0  0  0  0  0  0  0  0  0
   -3.8371    2.9139   -0.1329 H   0  0  0  0  0  0  0  0  0  0  0  0
   -5.2875    1.4489   -2.2943 H   0  0  0  0  0  0  0  0  0  0  0  0
   -6.4347    3.3794   -0.1697 H   0  0  0  0  0  0  0  0  0  0  0  0
   -6.5969    1.6437   -0.0756 H   0  0  0  0  0  0  0  0  0  0  0  0
   -7.7457    0.4050   -2.0894 H   0  0  0  0  0  0  0  0  0  0  0  0
   -9.7736    0.4901   -3.4725 H   0  0  0  0  0  0  0  0  0  0  0  0
  -11.4001    1.8246   -4.3062 H   0  0  0  0  0  0  0  0  0  0  0  0
  -10.1082    4.7187   -2.7592 H   0  0  0  0  0  0  0  0  0  0  0  0
   -8.0697    4.6541   -1.3680 H   0  0  0  0  0  0  0  0  0  0  0  0
   -5.0538    4.3494   -4.0958 H   0  0  0  0  0  0  0  0  0  0  0  0
   -1.6994    3.4927   -0.4771 H   0  0  0  0  0  0  0  0  0  0  0  0
    0.8290    2.2091    0.6681 H   0  0  0  0  0  0  0  0  0  0  0  0
   -0.4378    2.9895    1.6496 H   0  0  0  0  0  0  0  0  0  0  0  0
    0.5012    3.9167    0.4607 H   0  0  0  0  0  0  0  0  0  0  0  0
    0.3230    1.8680   -1.6220 H   0  0  0  0  0  0  0  0  0  0  0  0
    1.9927   -1.2359    3.5509 H   0  0  0  0  0  0  0  0  0  0  0  0
    4.8752   -1.2060    4.5817 H   0  0  0  0  0  0  0  0  0  0  0  0
    3.4115   -0.8643    5.5162 H   0  0  0  0  0  0  0  0  0  0  0  0
    3.6846   -2.4879    4.8713 H   0  0  0  0  0  0  0  0  0  0  0  0
    4.2427    0.7675    3.0033 H   0  0  0  0  0  0  0  0  0  0  0  0
    2.6442    0.7799    2.2352 H   0  0  0  0  0  0  0  0  0  0  0  0
    2.7915    1.0365    3.9743 H   0  0  0  0  0  0  0  0  0  0  0  0
  1  2  1  0
  2  3  1  0
  2  4  1  0
  4  5  1  0
  4  6  1  0
  6  7  2  0
  6  8  1  0
  8  9  1  0
  9 10  1  0
 10 11  2  0
 10 12  1  0
 12 13  1  0
 13 14  1  0
 14 15  1  0
 13 16  1  0
 16 17  2  0
 16 18  1  0
 18 19  1  0
 19 20  1  0
 20 21  2  0
 20 22  1  0
 22 23  1  0
 23 24  1  0
 24 25  1  0
 25 26  2  0
 26 27  1  0
 27 28  2  0
 28 29  1  0
 28 30  1  0
 30 31  2  0
 23 32  1  0
 32 33  2  0
 32 34  1  0
 19 35  1  0
 35 36  1  0
 35 37  1  0
  9 38  1  0
 38 39  1  0
 38 40  1  0
 31 25  1  0
  1 41  1  0
  1 42  1  0
  1 43  1  0
  2 44  1  0
  3 45  1  0
  3 46  1  0
  3 47  1  0
  4 48  1  6
  5 49  1  0
  5 50  1  0
  8 51  1  0
  9 52  1  1
 12 53  1  0
 13 54  1  6
 14 55  1  0
 14 56  1  0
 15 57  1  0
 18 58  1  0
 19 59  1  1
 22 60  1  0
 23 61  1  6
 24 62  1  0
 24 63  1  0
 26 64  1  0
 27 65  1  0
 29 66  1  0
 30 67  1  0
 31 68  1  0
 34 69  1  0
 35 70  1  6
 36 71  1  0
 36 72  1  0
 36 73  1  0
 37 74  1  0
 38 75  1  0
 39 76  1  0
 39 77  1  0
 39 78  1  0
 40 79  1  0
 40 80  1  0
 40 81  1  0
M  END
$$$$
VVCTY.sdf
     RDKit          3D

 81 81  0  0  0  0  0  0  0  0999 V2000
    9.2677   -4.1552    0.1488 C   0  0  0  0  0  0  0  0  0  0  0  0
    8.1720   -3.4406    0.9501 C   0  0  0  0  0  0  0  0  0  0  0  0
    8.7529   -3.0197    2.3071 C   0  0  0  0  0  0  0  0  0  0  0  0
    6.9090   -4.3187    1.1308 C   0  0  2  0  0  0  0  0  0  0  0  0
    6.3470   -4.7295   -0.1807 N   0  0  0  0  0  0  0  0  0  0  0  0
    5.8109   -3.5505    1.9032 C   0  0  0  0  0  0  0  0  0  0  0  0
    5.6007   -3.7164    3.1012 O   0  0  0  0  0  0  0  0  0  0  0  0
    5.1263   -2.6423    1.1336 N   0  0  0  0  0  0  0  0  0  0  0  0
    4.0533   -1.8031    1.6499 C   0  0  2  0  0  0  0  0  0  0  0  0
    3.0900   -1.5145    0.4794 C   0  0  0  0  0  0  0  0  0  0  0  0
    3.4422   -1.5552   -0.6992 O   0  0  0  0  0  0  0  0  0  0  0  0
    1.8065   -1.1962    0.8428 N   0  0  0  0  0  0  0  0  0  0  0  0
    0.7820   -0.8262   -0.1339 C   0  0  1  0  0  0  0  0  0  0  0  0
    0.2485   -2.0253   -0.9318 C   0  0  0  0  0  0  0  0  0  0  0  0
   -0.4665   -3.3473    0.1058 S   0  0  0  0  0  0  0  0  0  0  0  0
   -0.3305   -0.0674    0.6151 C   0  0  0  0  0  0  0  0  0  0  0  0
   -0.3436    0.0226    1.8434 O   0  0  0  0  0  0  0  0  0  0  0  0
   -1.2778    0.5303   -0.1763 N   0  0  0  0  0  0  0  0  0  0  0  0
   -2.4683    1.1768    0.3797 C   0  0  2  0  0  0  0  0  0  0  0  0
   -3.4805    1.3333   -0.7756 C   0  0  0  0  0  0  0  0  0  0  0  0
   -3.2093    0.9892   -1.9267 O   0  0  0  0  0  0  0  0  0  0  0  0
   -4.7020    1.8516   -0.4105 N   0  0  0  0  0  0  0  0  0  0  0  0
   -5.6992    2.2280   -1.4184 C   0  0  1  0  0  0  0  0  0  0  0  0
   -7.1072    2.1599   -0.8149 C   0  0  0  0  0  0  0  0  0  0  0  0
   -8.2136    2.3600   -1.8229 C   0  0  0  0  0  0  0  0  0  0  0  0
   -8.5211    1.3538   -2.7506 C   0  0  0  0  0  0  0  0  0  0  0  0
   -9.5347    1.5432   -3.6928 C   0  0  0  0  0  0  0  0  0  0  0  0
  -10.2417    2.7406   -3.7057 C   0  0  0  0  0  0  0  0  0  0  0  0
  -11.2378    2.9682   -4.6084 O   0  0  0  0  0  0  0  0  0  0  0  0
   -9.9525    3.7474   -2.7934 C   0  0  0  0  0  0  0  0  0  0  0  0
   -8.9397    3.5592   -1.8521 C   0  0  0  0  0  0  0  0  0  0  0  0
   -5.3930    3.6563   -1.8670 C   0  0  0  0  0  0  0  0  0  0  0  0
   -5.0345    4.5772   -1.1461 O   0  0  0  0  0  0  0  0  0  0  0  0
   -5.5679    3.8521   -3.1885 O   0  0  0  0  0  0  0  0  0  0  0  0
   -2.1678    2.5217    1.0786 C   0  0  1  0  0  0  0  0  0  0  0  0
   -1.5958    3.5836    0.1441 C   0  0  0  0  0  0  0  0  0  0  0  0
   -3.3653    3.0322    1.6862 O   0  0  0  0  0  0  0  0  0  0  0  0
    4.6223   -0.5315    2.3220 C   0  0  0  0  0  0  0  0  0  0  0  0
    5.3137    0.4100    1.3303 C   0  0  0  0  0  0  0  0  0  0  0  0
    3.5678    0.2355    3.1225 C   0  0  0  0  0  0  0  0  0  0  0  0
    9.5305   -5.1149    0.6065 H   0  0  0  0  0  0  0  0  0  0  0  0
    8.9544   -4.3409   -0.8831 H   0  0  0  0  0  0  0  0  0  0  0  0
   10.1760   -3.5444    0.1008 H   0  0  0  0  0  0  0  0  0  0  0  0
    7.9044   -2.5229    0.4093 H   0  0  0  0  0  0  0  0  0  0  0  0
    8.0501   -2.3947    2.8668 H   0  0  0  0  0  0  0  0  0  0  0  0
    8.9985   -3.8931    2.9208 H   0  0  0  0  0  0  0  0  0  0  0  0
    9.6681   -2.4325    2.1735 H   0  0  0  0  0  0  0  0  0  0  0  0
    7.1451   -5.2254    1.7006 H   0  0  0  0  0  0  0  0  0  0  0  0
    5.5142   -5.2959   -0.0077 H   0  0  0  0  0  0  0  0  0  0  0  0
    7.0062   -5.3557   -0.6419 H   0  0  0  0  0  0  0  0  0  0  0  0
    5.2680   -2.6937    0.1240 H   0  0  0  0  0  0  0  0  0  0  0  0
    3.5082   -2.3971    2.3947 H   0  0  0  0  0  0  0  0  0  0  0  0
    1.5350   -1.1447    1.8220 H   0  0  0  0  0  0  0  0  0  0  0  0
    1.2427   -0.1152   -0.8318 H   0  0  0  0  0  0  0  0  0  0  0  0
    1.0549   -2.4784   -1.5174 H   0  0  0  0  0  0  0  0  0  0  0  0
   -0.5250   -1.7085   -1.6382 H   0  0  0  0  0  0  0  0  0  0  0  0
    0.6583   -3.6227    0.7834 H   0  0  0  0  0  0  0  0  0  0  0  0
   -1.3079    0.3565   -1.1785 H   0  0  0  0  0  0  0  0  0  0  0  0
   -2.9181    0.4827    1.1016 H   0  0  0  0  0  0  0  0  0  0  0  0
   -4.6834    2.4094    0.4480 H   0  0  0  0  0  0  0  0  0  0  0  0
   -5.5949    1.5542   -2.2765 H   0  0  0  0  0  0  0  0  0  0  0  0
   -7.2075    2.8970   -0.0065 H   0  0  0  0  0  0  0  0  0  0  0  0
   -7.2574    1.1832   -0.3348 H   0  0  0  0  0  0  0  0  0  0  0  0
   -7.9720    0.4143   -2.7460 H   0  0  0  0  0  0  0  0  0  0  0  0
   -9.7544    0.7515   -4.4019 H   0  0  0  0  0  0  0  0  0  0  0  0
  -11.3255    2.1842   -5.1748 H   0  0  0  0  0  0  0  0  0  0  0  0
  -10.5144    4.6768   -2.8149 H   0  0  0  0  0  0  0  0  0  0  0  0
   -8.7238    4.3569   -1.1447 H   0  0  0  0  0  0  0  0  0  0  0  0
   -5.3547    4.7967   -3.3336 H   0  0  0  0  0  0  0  0  0  0  0  0
   -1.4530    2.3548    1.8919 H   0  0  0  0  0  0  0  0  0  0  0  0
   -2.3091    3.8550   -0.6404 H   0  0  0  0  0  0  0  0  0  0  0  0
   -1.3867    4.5038    0.7008 H   0  0  0  0  0  0  0  0  0  0  0  0
   -0.6661    3.2492   -0.3253 H   0  0  0  0  0  0  0  0  0  0  0  0
   -3.1109    3.8322    2.1841 H   0  0  0  0  0  0  0  0  0  0  0  0
    5.3876   -0.8528    3.0420 H   0  0  0  0  0  0  0  0  0  0  0  0
    4.6060    0.8239    0.6046 H   0  0  0  0  0  0  0  0  0  0  0  0
    5.7753    1.2511    1.8592 H   0  0  0  0  0  0  0  0  0  0  0  0
    6.1066   -0.1059    0.7793 H   0  0  0  0  0  0  0  0  0  0  0  0
    3.0336   -0.4306    3.8077 H   0  0  0  0  0  0  0  0  0  0  0  0
    2.8364    0.7251    2.4724 H   0  0  0  0  0  0  0  0  0  0  0  0
    4.0423    1.0183    3.7248 H   0  0  0  0  0  0  0  0  0  0  0  0
  1  2  1  0
  2  3  1  0
  2  4  1  0
  4  5  1  0
  4  6  1  0
  6  7  2  0
  6  8  1  0
  8  9  1  0
  9 10  1  0
 10 11  2  0
 10 12  1  0
 12 13  1  0
 13 14  1  0
 14 15  1  0
 13 16  1  0
 16 17  2  0
 16 18  1  0
 18 19  1  0
 19 20  1  0
 20 21  2  0
 20 22  1  0
 22 23  1  0
 23 24  1  0
 24 25  1  0
 25 26  2  0
 26 27  1  0
 27 28  2  0
 28 29  1  0
 28 30  1  0
 30 31  2  0
 23 32  1  0
 32 33  2  0
 32 34  1  0
 19 35  1  0
 35 36  1  0
 35 37  1  0
  9 38  1  0
 38 39  1  0
 38 40  1  0
 31 25  1  0
  1 41  1  0
  1 42  1  0
  1 43  1  0
  2 44  1  0
  3 45  1  0
  3 46  1  0
  3 47  1  0
  4 48  1  1
  5 49  1  0
  5 50  1  0
  8 51  1  0
  9 52  1  1
 12 53  1  0
 13 54  1  6
 14 55  1  0
 14 56  1  0
 15 57  1  0
 18 58  1  0
 19 59  1  1
 22 60  1  0
 23 61  1  6
 24 62  1  0
 24 63  1  0
 26 64  1  0
 27 65  1  0
 29 66  1  0
 30 67  1  0
 31 68  1  0
 34 69  1  0
 35 70  1  1
 36 71  1  0
 36 72  1  0
 36 73  1  0
 37 74  1  0
 38 75  1  0
 39 76  1  0
 39 77  1  0
 39 78  1  0
 40 79  1  0
 40 80  1  0
 40 81  1  0
M  END
$$$$
VVCTY.sdf
     RDKit          3D

 81 81  0  0  0  0  0  0  0  0999 V2000
    8.2738   -3.9821    1.4980 C   0  0  0  0  0  0  0  0  0  0  0  0
    6.7443   -3.9314    1.5804 C   0  0  0  0  0  0  0  0  0  0  0  0
    6.3159   -3.6428    3.0235 C   0  0  0  0  0  0  0  0  0  0  0  0
    6.1609   -2.9451    0.5418 C   0  0  2  0  0  0  0  0  0  0  0  0
    6.5495   -1.5400    0.7910 N   0  0  0  0  0  0  0  0  0  0  0  0
    4.6265   -3.1131    0.4288 C   0  0  0  0  0  0  0  0  0  0  0  0
    4.1162   -4.0609   -0.1643 O   0  0  0  0  0  0  0  0  0  0  0  0
    3.8788   -2.1563    1.0877 N   0  0  0  0  0  0  0  0  0  0  0  0
    2.4454   -2.0439    0.8361 C   0  0  2  0  0  0  0  0  0  0  0  0
    2.2604   -0.9916   -0.2806 C   0  0  0  0  0  0  0  0  0  0  0  0
    3.1187   -0.1458   -0.5342 O   0  0  0  0  0  0  0  0  0  0  0  0
    1.0462   -1.0459   -0.9340 N   0  0  0  0  0  0  0  0  0  0  0  0
    0.6396    0.0568   -1.8088 C   0  0  1  0  0  0  0  0  0  0  0  0
   -0.3094   -0.4052   -2.9183 C   0  0  0  0  0  0  0  0  0  0  0  0
    0.5114   -1.5221   -4.0997 S   0  0  0  0  0  0  0  0  0  0  0  0
   -0.1062    1.0785   -0.9339 C   0  0  0  0  0  0  0  0  0  0  0  0
   -0.6953    0.7600    0.1011 O   0  0  0  0  0  0  0  0  0  0  0  0
   -0.1445    2.3564   -1.4291 N   0  0  0  0  0  0  0  0  0  0  0  0
   -0.8022    3.4650   -0.7289 C   0  0  2  0  0  0  0  0  0  0  0  0
   -2.3134    3.4498   -1.0493 C   0  0  0  0  0  0  0  0  0  0  0  0
   -2.9002    4.4005   -1.5605 O   0  0  0  0  0  0  0  0  0  0  0  0
   -2.9573    2.2864   -0.6807 N   0  0  0  0  0  0  0  0  0  0  0  0
   -4.4204    2.1827   -0.6904 C   0  0  1  0  0  0  0  0  0  0  0  0
   -4.8385    0.7192   -0.8743 C   0  0  0  0  0  0  0  0  0  0  0  0
   -6.3208    0.5274   -1.0852 C   0  0  0  0  0  0  0  0  0  0  0  0
   -7.1191   -0.0115   -0.0663 C   0  0  0  0  0  0  0  0  0  0  0  0
   -8.4912   -0.1775   -0.2586 C   0  0  0  0  0  0  0  0  0  0  0  0
   -9.0681    0.1940   -1.4663 C   0  0  0  0  0  0  0  0  0  0  0  0
  -10.4121    0.0155   -1.6096 O   0  0  0  0  0  0  0  0  0  0  0  0
   -8.2943    0.7292   -2.4903 C   0  0  0  0  0  0  0  0  0  0  0  0
   -6.9207    0.8950   -2.2989 C   0  0  0  0  0  0  0  0  0  0  0  0
   -4.9273    2.7099    0.6508 C   0  0  0  0  0  0  0  0  0  0  0  0
   -4.3916    2.5432    1.7376 O   0  0  0  0  0  0  0  0  0  0  0  0
   -6.0796    3.4005    0.5545 O   0  0  0  0  0  0  0  0  0  0  0  0
   -0.1819    4.8159   -1.1403 C   0  0  1  0  0  0  0  0  0  0  0  0
    1.2403    4.9704   -0.6132 C   0  0  0  0  0  0  0  0  0  0  0  0
   -0.1251    4.9095   -2.5717 O   0  0  0  0  0  0  0  0  0  0  0  0
    1.6482   -1.6633    2.1036 C   0  0  0  0  0  0  0  0  0  0  0  0
    1.6863   -2.7995    3.1300 C   0  0  0  0  0  0  0  0  0  0  0  0
    2.1221   -0.3593    2.7537 C   0  0  0  0  0  0  0  0  0  0  0  0
    8.7271   -3.0277    1.7855 H   0  0  0  0  0  0  0  0  0  0  0  0
    8.6707   -4.7548    2.1654 H   0  0  0  0  0  0  0  0  0  0  0  0
    8.6010   -4.2230    0.4810 H   0  0  0  0  0  0  0  0  0  0  0  0
    6.3727   -4.9351    1.3323 H   0  0  0  0  0  0  0  0  0  0  0  0
    6.7061   -4.4135    3.6977 H   0  0  0  0  0  0  0  0  0  0  0  0
    6.6918   -2.6777    3.3774 H   0  0  0  0  0  0  0  0  0  0  0  0
    5.2267   -3.6461    3.1247 H   0  0  0  0  0  0  0  0  0  0  0  0
    6.5551   -3.2018   -0.4500 H   0  0  0  0  0  0  0  0  0  0  0  0
    6.1102   -0.9310    0.0998 H   0  0  0  0  0  0  0  0  0  0  0  0
    6.2720   -1.2435    1.7220 H   0  0  0  0  0  0  0  0  0  0  0  0
    4.3528   -1.2709    1.2132 H   0  0  0  0  0  0  0  0  0  0  0  0
    2.0689   -2.9983    0.4478 H   0  0  0  0  0  0  0  0  0  0  0  0
    0.2949   -1.5258   -0.4502 H   0  0  0  0  0  0  0  0  0  0  0  0
    1.5269    0.5438   -2.2310 H   0  0  0  0  0  0  0  0  0  0  0  0
   -1.1693   -0.9360   -2.4939 H   0  0  0  0  0  0  0  0  0  0  0  0
   -0.7008    0.4488   -3.4812 H   0  0  0  0  0  0  0  0  0  0  0  0
    1.0425   -2.3494   -3.1844 H   0  0  0  0  0  0  0  0  0  0  0  0
    0.2991    2.5940   -2.3127 H   0  0  0  0  0  0  0  0  0  0  0  0
   -0.7002    3.3216    0.3542 H   0  0  0  0  0  0  0  0  0  0  0  0
   -2.4527    1.6887   -0.0225 H   0  0  0  0  0  0  0  0  0  0  0  0
   -4.8066    2.8202   -1.4937 H   0  0  0  0  0  0  0  0  0  0  0  0
   -4.5083    0.1216   -0.0136 H   0  0  0  0  0  0  0  0  0  0  0  0
   -4.3146    0.2908   -1.7399 H   0  0  0  0  0  0  0  0  0  0  0  0
   -6.6823   -0.3057    0.8857 H   0  0  0  0  0  0  0  0  0  0  0  0
   -9.1086   -0.5951    0.5317 H   0  0  0  0  0  0  0  0  0  0  0  0
  -10.6718    0.3198   -2.4945 H   0  0  0  0  0  0  0  0  0  0  0  0
   -8.7376    1.0220   -3.4367 H   0  0  0  0  0  0  0  0  0  0  0  0
   -6.3220    1.3147   -3.1048 H   0  0  0  0  0  0  0  0  0  0  0  0
   -6.2916    3.6674    1.4727 H   0  0  0  0  0  0  0  0  0  0  0  0
   -0.7823    5.6543   -0.7676 H   0  0  0  0  0  0  0  0  0  0  0  0
    1.2685    4.9059    0.4786 H   0  0  0  0  0  0  0  0  0  0  0  0
    1.6517    5.9401   -0.9147 H   0  0  0  0  0  0  0  0  0  0  0  0
    1.9077    4.2082   -1.0296 H   0  0  0  0  0  0  0  0  0  0  0  0
   -1.0402    5.1011   -2.8633 H   0  0  0  0  0  0  0  0  0  0  0  0
    0.5976   -1.5187    1.8203 H   0  0  0  0  0  0  0  0  0  0  0  0
    1.0495   -2.5648    3.9898 H   0  0  0  0  0  0  0  0  0  0  0  0
    1.3202   -3.7334    2.6906 H   0  0  0  0  0  0  0  0  0  0  0  0
    2.7011   -2.9731    3.5029 H   0  0  0  0  0  0  0  0  0  0  0  0
    1.4933   -0.1118    3.6161 H   0  0  0  0  0  0  0  0  0  0  0  0
    3.1550   -0.4342    3.1090 H   0  0  0  0  0  0  0  0  0  0  0  0
    2.0602    0.4800    2.0541 H   0  0  0  0  0  0  0  0  0  0  0  0
  1  2  1  0
  2  3  1  0
  2  4  1  0
  4  5  1  0
  4  6  1  0
  6  7  2  0
  6  8  1  0
  8  9  1  0
  9 10  1  0
 10 11  2  0
 10 12  1  0
 12 13  1  0
 13 14  1  0
 14 15  1  0
 13 16  1  0
 16 17  2  0
 16 18  1  0
 18 19  1  0
 19 20  1  0
 20 21  2  0
 20 22  1  0
 22 23  1  0
 23 24  1  0
 24 25  1  0
 25 26  2  0
 26 27  1  0
 27 28  2  0
 28 29  1  0
 28 30  1  0
 30 31  2  0
 23 32  1  0
 32 33  2  0
 32 34  1  0
 19 35  1  0
 35 36  1  0
 35 37  1  0
  9 38  1  0
 38 39  1  0
 38 40  1  0
 31 25  1  0
  1 41  1  0
  1 42  1  0
  1 43  1  0
  2 44  1  0
  3 45  1  0
  3 46  1  0
  3 47  1  0
  4 48  1  6
  5 49  1  0
  5 50  1  0
  8 51  1  0
  9 52  1  6
 12 53  1  0
 13 54  1  6
 14 55  1  0
 14 56  1  0
 15 57  1  0
 18 58  1  0
 19 59  1  1
 22 60  1  0
 23 61  1  6
 24 62  1  0
 24 63  1  0
 26 64  1  0
 27 65  1  0
 29 66  1  0
 30 67  1  0
 31 68  1  0
 34 69  1  0
 35 70  1  1
 36 71  1  0
 36 72  1  0
 36 73  1  0
 37 74  1  0
 38 75  1  0
 39 76  1  0
 39 77  1  0
 39 78  1  0
 40 79  1  0
 40 80  1  0
 40 81  1  0
M  END
$$$$
VVCTY.sdf
     RDKit          3D

 81 81  0  0  0  0  0  0  0  0999 V2000
    8.0488   -3.1596   -0.5144 C   0  0  0  0  0  0  0  0  0  0  0  0
    6.6122   -2.8503   -0.0800 C   0  0  0  0  0  0  0  0  0  0  0  0
    5.6859   -2.8709   -1.3016 C   0  0  0  0  0  0  0  0  0  0  0  0
    6.1530   -3.7961    1.0561 C   0  0  2  0  0  0  0  0  0  0  0  0
    6.0951   -5.2121    0.6339 N   0  0  0  0  0  0  0  0  0  0  0  0
    4.7772   -3.3724    1.6286 C   0  0  0  0  0  0  0  0  0  0  0  0
    3.7488   -4.0171    1.4273 O   0  0  0  0  0  0  0  0  0  0  0  0
    4.8018   -2.2226    2.3911 N   0  0  0  0  0  0  0  0  0  0  0  0
    3.5467   -1.5657    2.7583 C   0  0  2  0  0  0  0  0  0  0  0  0
    3.2409   -0.6139    1.5820 C   0  0  0  0  0  0  0  0  0  0  0  0
    4.1247    0.0172    1.0026 O   0  0  0  0  0  0  0  0  0  0  0  0
    1.9151   -0.5075    1.2499 N   0  0  0  0  0  0  0  0  0  0  0  0
    1.4441    0.3271    0.1409 C   0  0  1  0  0  0  0  0  0  0  0  0
    1.7017   -0.3533   -1.2116 C   0  0  0  0  0  0  0  0  0  0  0  0
    1.4550    0.7397   -2.6512 S   0  0  0  0  0  0  0  0  0  0  0  0
   -0.0601    0.5385    0.3891 C   0  0  0  0  0  0  0  0  0  0  0  0
   -0.7204   -0.2238    1.0971 O   0  0  0  0  0  0  0  0  0  0  0  0
   -0.6112    1.6305   -0.2370 N   0  0  0  0  0  0  0  0  0  0  0  0
   -2.0621    1.8029   -0.3039 C   0  0  2  0  0  0  0  0  0  0  0  0
   -2.5825    0.9759   -1.5008 C   0  0  0  0  0  0  0  0  0  0  0  0
   -1.8366    0.4544   -2.3307 O   0  0  0  0  0  0  0  0  0  0  0  0
   -3.9591    0.9101   -1.6156 N   0  0  0  0  0  0  0  0  0  0  0  0
   -4.5437    0.5780   -2.9211 C   0  0  1  0  0  0  0  0  0  0  0  0
   -5.9933    0.0808   -2.8052 C   0  0  0  0  0  0  0  0  0  0  0  0
   -6.9248    1.0168   -2.0643 C   0  0  0  0  0  0  0  0  0  0  0  0
   -7.1366    0.8580   -0.6862 C   0  0  0  0  0  0  0  0  0  0  0  0
   -7.9652    1.7400    0.0075 C   0  0  0  0  0  0  0  0  0  0  0  0
   -8.5889    2.7779   -0.6728 C   0  0  0  0  0  0  0  0  0  0  0  0
   -9.3874    3.6169    0.0454 O   0  0  0  0  0  0  0  0  0  0  0  0
   -8.4022    2.9469   -2.0403 C   0  0  0  0  0  0  0  0  0  0  0  0
   -7.5715    2.0646   -2.7354 C   0  0  0  0  0  0  0  0  0  0  0  0
   -4.4212    1.8183   -3.8178 C   0  0  0  0  0  0  0  0  0  0  0  0
   -3.9309    2.8955   -3.4997 O   0  0  0  0  0  0  0  0  0  0  0  0
   -4.8798    1.6226   -5.0700 O   0  0  0  0  0  0  0  0  0  0  0  0
   -2.4397    3.2909   -0.4836 C   0  0  1  0  0  0  0  0  0  0  0  0
   -1.9967    4.1356    0.7064 C   0  0  0  0  0  0  0  0  0  0  0  0
   -1.8255    3.8380   -1.6563 O   0  0  0  0  0  0  0  0  0  0  0  0
    3.6877   -0.7864    4.0835 C   0  0  0  0  0  0  0  0  0  0  0  0
    2.3871   -0.0749    4.4717 C   0  0  0  0  0  0  0  0  0  0  0  0
    4.1056   -1.7185    5.2277 C   0  0  0  0  0  0  0  0  0  0  0  0
    8.1306   -4.1510   -0.9721 H   0  0  0  0  0  0  0  0  0  0  0  0
    8.7305   -3.1210    0.3418 H   0  0  0  0  0  0  0  0  0  0  0  0
    8.3960   -2.4242   -1.2483 H   0  0  0  0  0  0  0  0  0  0  0  0
    6.6089   -1.8222    0.3040 H   0  0  0  0  0  0  0  0  0  0  0  0
    6.0137   -2.1320   -2.0412 H   0  0  0  0  0  0  0  0  0  0  0  0
    4.6569   -2.6209   -1.0253 H   0  0  0  0  0  0  0  0  0  0  0  0
    5.6811   -3.8489   -1.7934 H   0  0  0  0  0  0  0  0  0  0  0  0
    6.8732   -3.7356    1.8822 H   0  0  0  0  0  0  0  0  0  0  0  0
    5.3100   -5.3040   -0.0170 H   0  0  0  0  0  0  0  0  0  0  0  0
    5.7928   -5.7646    1.4391 H   0  0  0  0  0  0  0  0  0  0  0  0
    5.5787   -1.5909    2.2278 H   0  0  0  0  0  0  0  0  0  0  0  0
    2.7521   -2.3166    2.8390 H   0  0  0  0  0  0  0  0  0  0  0  0
    1.2206   -1.1030    1.6956 H   0  0  0  0  0  0  0  0  0  0  0  0
    1.9658    1.2893    0.2085 H   0  0  0  0  0  0  0  0  0  0  0  0
    2.7370   -0.7061   -1.2634 H   0  0  0  0  0  0  0  0  0  0  0  0
    1.0569   -1.2307   -1.3349 H   0  0  0  0  0  0  0  0  0  0  0  0
    0.1218    0.5581   -2.7517 H   0  0  0  0  0  0  0  0  0  0  0  0
   -0.0917    2.0583   -1.0004 H   0  0  0  0  0  0  0  0  0  0  0  0
   -2.5185    1.4011    0.6085 H   0  0  0  0  0  0  0  0  0  0  0  0
   -4.5072    1.5362   -1.0378 H   0  0  0  0  0  0  0  0  0  0  0  0
   -3.9320   -0.2066   -3.3829 H   0  0  0  0  0  0  0  0  0  0  0  0
   -6.4107   -0.1173   -3.8007 H   0  0  0  0  0  0  0  0  0  0  0  0
   -5.9949   -0.8886   -2.2890 H   0  0  0  0  0  0  0  0  0  0  0  0
   -6.6599    0.0443   -0.1425 H   0  0  0  0  0  0  0  0  0  0  0  0
   -8.1292    1.6149    1.0743 H   0  0  0  0  0  0  0  0  0  0  0  0
   -9.7811    4.2673   -0.5591 H   0  0  0  0  0  0  0  0  0  0  0  0
   -8.8922    3.7517   -2.5794 H   0  0  0  0  0  0  0  0  0  0  0  0
   -7.4398    2.2001   -3.8070 H   0  0  0  0  0  0  0  0  0  0  0  0
   -4.6659    2.4538   -5.5457 H   0  0  0  0  0  0  0  0  0  0  0  0
   -3.5234    3.4084   -0.5944 H   0  0  0  0  0  0  0  0  0  0  0  0
   -0.9058    4.1530    0.8033 H   0  0  0  0  0  0  0  0  0  0  0  0
   -2.3102    5.1762    0.5678 H   0  0  0  0  0  0  0  0  0  0  0  0
   -2.4297    3.7645    1.6402 H   0  0  0  0  0  0  0  0  0  0  0  0
   -2.4040    3.6216   -2.4196 H   0  0  0  0  0  0  0  0  0  0  0  0
    4.4678   -0.0214    3.9722 H   0  0  0  0  0  0  0  0  0  0  0  0
    2.4871    0.4135    5.4472 H   0  0  0  0  0  0  0  0  0  0  0  0
    2.1275    0.7046    3.7490 H   0  0  0  0  0  0  0  0  0  0  0  0
    1.5513   -0.7802    4.5316 H   0  0  0  0  0  0  0  0  0  0  0  0
    3.3754   -2.5226    5.3696 H   0  0  0  0  0  0  0  0  0  0  0  0
    4.1868   -1.1655    6.1698 H   0  0  0  0  0  0  0  0  0  0  0  0
    5.0817   -2.1751    5.0346 H   0  0  0  0  0  0  0  0  0  0  0  0
  1  2  1  0
  2  3  1  0
  2  4  1  0
  4  5  1  0
  4  6  1  0
  6  7  2  0
  6  8  1  0
  8  9  1  0
  9 10  1  0
 10 11  2  0
 10 12  1  0
 12 13  1  0
 13 14  1  0
 14 15  1  0
 13 16  1  0
 16 17  2  0
 16 18  1  0
 18 19  1  0
 19 20  1  0
 20 21  2  0
 20 22  1  0
 22 23  1  0
 23 24  1  0
 24 25  1  0
 25 26  2  0
 26 27  1  0
 27 28  2  0
 28 29  1  0
 28 30  1  0
 30 31  2  0
 23 32  1  0
 32 33  2  0
 32 34  1  0
 19 35  1  0
 35 36  1  0
 35 37  1  0
  9 38  1  0
 38 39  1  0
 38 40  1  0
 31 25  1  0
  1 41  1  0
  1 42  1  0
  1 43  1  0
  2 44  1  0
  3 45  1  0
  3 46  1  0
  3 47  1  0
  4 48  1  1
  5 49  1  0
  5 50  1  0
  8 51  1  0
  9 52  1  1
 12 53  1  0
 13 54  1  6
 14 55  1  0
 14 56  1  0
 15 57  1  0
 18 58  1  0
 19 59  1  1
 22 60  1  0
 23 61  1  6
 24 62  1  0
 24 63  1  0
 26 64  1  0
 27 65  1  0
 29 66  1  0
 30 67  1  0
 31 68  1  0
 34 69  1  0
 35 70  1  6
 36 71  1  0
 36 72  1  0
 36 73  1  0
 37 74  1  0
 38 75  1  0
 39 76  1  0
 39 77  1  0
 39 78  1  0
 40 79  1  0
 40 80  1  0
 40 81  1  0
M  END
$$$$
VVCTY.sdf
     RDKit          3D

 81 81  0  0  0  0  0  0  0  0999 V2000
    8.6705   -1.6545    3.2788 C   0  0  0  0  0  0  0  0  0  0  0  0
    7.4627   -2.4405    2.7531 C   0  0  0  0  0  0  0  0  0  0  0  0
    7.8655   -3.9133    2.5986 C   0  0  0  0  0  0  0  0  0  0  0  0
    6.9252   -1.8667    1.4208 C   0  0  2  0  0  0  0  0  0  0  0  0
    6.5506   -0.4335    1.5657 N   0  0  0  0  0  0  0  0  0  0  0  0
    5.6654   -2.6336    0.9523 C   0  0  0  0  0  0  0  0  0  0  0  0
    5.7004   -3.5333    0.1191 O   0  0  0  0  0  0  0  0  0  0  0  0
    4.5118   -2.2072    1.5822 N   0  0  0  0  0  0  0  0  0  0  0  0
    3.2088   -2.5478    1.0296 C   0  0  2  0  0  0  0  0  0  0  0  0
    2.8616   -1.5097   -0.0674 C   0  0  0  0  0  0  0  0  0  0  0  0
    3.4263   -0.4192   -0.1559 O   0  0  0  0  0  0  0  0  0  0  0  0
    1.8477   -1.8951   -0.9229 N   0  0  0  0  0  0  0  0  0  0  0  0
    1.2120   -0.9104   -1.8058 C   0  0  1  0  0  0  0  0  0  0  0  0
    0.7919   -1.5662   -3.1257 C   0  0  0  0  0  0  0  0  0  0  0  0
    0.3380   -0.3673   -4.4237 S   0  0  0  0  0  0  0  0  0  0  0  0
   -0.0163   -0.3849   -1.0357 C   0  0  0  0  0  0  0  0  0  0  0  0
   -0.5757   -1.0537   -0.1663 O   0  0  0  0  0  0  0  0  0  0  0  0
   -0.4494    0.8672   -1.4189 N   0  0  0  0  0  0  0  0  0  0  0  0
   -1.7518    1.3660   -0.9699 C   0  0  2  0  0  0  0  0  0  0  0  0
   -2.8328    0.9171   -1.9821 C   0  0  0  0  0  0  0  0  0  0  0  0
   -2.5604    0.3317   -3.0306 O   0  0  0  0  0  0  0  0  0  0  0  0
   -4.1244    1.2116   -1.6035 N   0  0  0  0  0  0  0  0  0  0  0  0
   -5.2523    0.9890   -2.5093 C   0  0  1  0  0  0  0  0  0  0  0  0
   -6.5568    0.6955   -1.7511 C   0  0  0  0  0  0  0  0  0  0  0  0
   -7.0214    1.7981   -0.8241 C   0  0  0  0  0  0  0  0  0  0  0  0
   -6.5744    1.8447    0.5045 C   0  0  0  0  0  0  0  0  0  0  0  0
   -6.9833    2.8743    1.3526 C   0  0  0  0  0  0  0  0  0  0  0  0
   -7.8430    3.8566    0.8783 C   0  0  0  0  0  0  0  0  0  0  0  0
   -8.2163    4.8447    1.7404 O   0  0  0  0  0  0  0  0  0  0  0  0
   -8.3044    3.8261   -0.4331 C   0  0  0  0  0  0  0  0  0  0  0  0
   -7.8937    2.7962   -1.2829 C   0  0  0  0  0  0  0  0  0  0  0  0
   -5.4126    2.1783   -3.4587 C   0  0  0  0  0  0  0  0  0  0  0  0
   -4.8634    3.2669   -3.3805 O   0  0  0  0  0  0  0  0  0  0  0  0
   -6.2677    1.9289   -4.4742 O   0  0  0  0  0  0  0  0  0  0  0  0
   -1.7475    2.8951   -0.7619 C   0  0  1  0  0  0  0  0  0  0  0  0
   -1.5095    3.7001   -2.0355 C   0  0  0  0  0  0  0  0  0  0  0  0
   -2.9865    3.3034   -0.1665 O   0  0  0  0  0  0  0  0  0  0  0  0
    2.1103   -2.6151    2.1149 C   0  0  0  0  0  0  0  0  0  0  0  0
    2.3795   -3.7638    3.0921 C   0  0  0  0  0  0  0  0  0  0  0  0
    1.9389   -1.3031    2.8879 C   0  0  0  0  0  0  0  0  0  0  0  0
    9.4711   -1.6135    2.5325 H   0  0  0  0  0  0  0  0  0  0  0  0
    9.0756   -2.1221    4.1830 H   0  0  0  0  0  0  0  0  0  0  0  0
    8.3969   -0.6289    3.5454 H   0  0  0  0  0  0  0  0  0  0  0  0
    6.6730   -2.3943    3.5151 H   0  0  0  0  0  0  0  0  0  0  0  0
    8.6217   -4.0370    1.8158 H   0  0  0  0  0  0  0  0  0  0  0  0
    8.2809   -4.3034    3.5342 H   0  0  0  0  0  0  0  0  0  0  0  0
    7.0044   -4.5390    2.3443 H   0  0  0  0  0  0  0  0  0  0  0  0
    7.6773   -1.9448    0.6267 H   0  0  0  0  0  0  0  0  0  0  0  0
    7.4017    0.1182    1.6697 H   0  0  0  0  0  0  0  0  0  0  0  0
    6.1359   -0.1209    0.6811 H   0  0  0  0  0  0  0  0  0  0  0  0
    4.6208   -1.2621    1.9508 H   0  0  0  0  0  0  0  0  0  0  0  0
    3.2841   -3.5241    0.5336 H   0  0  0  0  0  0  0  0  0  0  0  0
    1.2318   -2.6284   -0.5870 H   0  0  0  0  0  0  0  0  0  0  0  0
    1.9102   -0.0844   -1.9826 H   0  0  0  0  0  0  0  0  0  0  0  0
   -0.0513   -2.2501   -2.9780 H   0  0  0  0  0  0  0  0  0  0  0  0
    1.6254   -2.1577   -3.5205 H   0  0  0  0  0  0  0  0  0  0  0  0
   -0.9521   -0.2178   -4.0548 H   0  0  0  0  0  0  0  0  0  0  0  0
   -0.1564    1.1671   -2.3441 H   0  0  0  0  0  0  0  0  0  0  0  0
   -2.0092    0.8851   -0.0172 H   0  0  0  0  0  0  0  0  0  0  0  0
   -4.2061    2.0013   -0.9576 H   0  0  0  0  0  0  0  0  0  0  0  0
   -5.0068    0.1206   -3.1334 H   0  0  0  0  0  0  0  0  0  0  0  0
   -6.4310   -0.2222   -1.1607 H   0  0  0  0  0  0  0  0  0  0  0  0
   -7.3618    0.4751   -2.4644 H   0  0  0  0  0  0  0  0  0  0  0  0
   -5.9010    1.0810    0.8888 H   0  0  0  0  0  0  0  0  0  0  0  0
   -6.6320    2.9088    2.3799 H   0  0  0  0  0  0  0  0  0  0  0  0
   -8.8250    5.4440    1.2787 H   0  0  0  0  0  0  0  0  0  0  0  0
   -8.9783    4.5886   -0.8104 H   0  0  0  0  0  0  0  0  0  0  0  0
   -8.2619    2.7788   -2.3066 H   0  0  0  0  0  0  0  0  0  0  0  0
   -6.2308    2.7461   -5.0154 H   0  0  0  0  0  0  0  0  0  0  0  0
   -0.9568    3.1437   -0.0433 H   0  0  0  0  0  0  0  0  0  0  0  0
   -0.5450    3.4595   -2.4915 H   0  0  0  0  0  0  0  0  0  0  0  0
   -2.2976    3.5281   -2.7735 H   0  0  0  0  0  0  0  0  0  0  0  0
   -1.5232    4.7729   -1.8139 H   0  0  0  0  0  0  0  0  0  0  0  0
   -2.9455    4.2690   -0.0340 H   0  0  0  0  0  0  0  0  0  0  0  0
    1.1512   -2.8273    1.6259 H   0  0  0  0  0  0  0  0  0  0  0  0
    3.3005   -3.6024    3.6622 H   0  0  0  0  0  0  0  0  0  0  0  0
    2.4717   -4.7152    2.5577 H   0  0  0  0  0  0  0  0  0  0  0  0
    1.5562   -3.8630    3.8077 H   0  0  0  0  0  0  0  0  0  0  0  0
    1.1130   -1.3864    3.6029 H   0  0  0  0  0  0  0  0  0  0  0  0
    2.8396   -1.0434    3.4534 H   0  0  0  0  0  0  0  0  0  0  0  0
    1.7051   -0.4722    2.2151 H   0  0  0  0  0  0  0  0  0  0  0  0
  1  2  1  0
  2  3  1  0
  2  4  1  0
  4  5  1  0
  4  6  1  0
  6  7  2  0
  6  8  1  0
  8  9  1  0
  9 10  1  0
 10 11  2  0
 10 12  1  0
 12 13  1  0
 13 14  1  0
 14 15  1  0
 13 16  1  0
 16 17  2  0
 16 18  1  0
 18 19  1  0
 19 20  1  0
 20 21  2  0
 20 22  1  0
 22 23  1  0
 23 24  1  0
 24 25  1  0
 25 26  2  0
 26 27  1  0
 27 28  2  0
 28 29  1  0
 28 30  1  0
 30 31  2  0
 23 32  1  0
 32 33  2  0
 32 34  1  0
 19 35  1  0
 35 36  1  0
 35 37  1  0
  9 38  1  0
 38 39  1  0
 38 40  1  0
 31 25  1  0
  1 41  1  0
  1 42  1  0
  1 43  1  0
  2 44  1  0
  3 45  1  0
  3 46  1  0
  3 47  1  0
  4 48  1  6
  5 49  1  0
  5 50  1  0
  8 51  1  0
  9 52  1  6
 12 53  1  0
 13 54  1  6
 14 55  1  0
 14 56  1  0
 15 57  1  0
 18 58  1  0
 19 59  1  1
 22 60  1  0
 23 61  1  6
 24 62  1  0
 24 63  1  0
 26 64  1  0
 27 65  1  0
 29 66  1  0
 30 67  1  0
 31 68  1  0
 34 69  1  0
 35 70  1  1
 36 71  1  0
 36 72  1  0
 36 73  1  0
 37 74  1  0
 38 75  1  0
 39 76  1  0
 39 77  1  0
 39 78  1  0
 40 79  1  0
 40 80  1  0
 40 81  1  0
M  END
$$$$
VVCTY.sdf
     RDKit          3D

 81 81  0  0  0  0  0  0  0  0999 V2000
    8.5891   -2.7082    0.5093 C   0  0  0  0  0  0  0  0  0  0  0  0
    8.0701   -2.7509    1.9556 C   0  0  0  0  0  0  0  0  0  0  0  0
    9.1893   -2.2329    2.8699 C   0  0  0  0  0  0  0  0  0  0  0  0
    6.7454   -1.9544    2.0967 C   0  0  2  0  0  0  0  0  0  0  0  0
    6.3945   -1.6395    3.5058 N   0  0  0  0  0  0  0  0  0  0  0  0
    5.5344   -2.7081    1.4615 C   0  0  0  0  0  0  0  0  0  0  0  0
    5.6341   -3.5880    0.6128 O   0  0  0  0  0  0  0  0  0  0  0  0
    4.3167   -2.2525    1.9253 N   0  0  0  0  0  0  0  0  0  0  0  0
    3.0679   -2.5509    1.2404 C   0  0  2  0  0  0  0  0  0  0  0  0
    2.7616   -1.4000    0.2533 C   0  0  0  0  0  0  0  0  0  0  0  0
    3.2794   -0.2864    0.3390 O   0  0  0  0  0  0  0  0  0  0  0  0
    1.8324   -1.7103   -0.7186 N   0  0  0  0  0  0  0  0  0  0  0  0
    1.2306   -0.6542   -1.5295 C   0  0  1  0  0  0  0  0  0  0  0  0
    0.8483   -1.1588   -2.9283 C   0  0  0  0  0  0  0  0  0  0  0  0
   -0.3253   -2.5598   -2.9303 S   0  0  0  0  0  0  0  0  0  0  0  0
    0.0103   -0.0830   -0.7750 C   0  0  0  0  0  0  0  0  0  0  0  0
   -0.5350   -0.6832    0.1507 O   0  0  0  0  0  0  0  0  0  0  0  0
   -0.4414    1.1376   -1.2415 N   0  0  0  0  0  0  0  0  0  0  0  0
   -1.7774    1.6069   -0.8613 C   0  0  2  0  0  0  0  0  0  0  0  0
   -2.7785    1.0809   -1.9169 C   0  0  0  0  0  0  0  0  0  0  0  0
   -2.4173    0.4669   -2.9219 O   0  0  0  0  0  0  0  0  0  0  0  0
   -4.1001    1.3383   -1.6294 N   0  0  0  0  0  0  0  0  0  0  0  0
   -5.1623    1.0305   -2.5880 C   0  0  1  0  0  0  0  0  0  0  0  0
   -6.4989    0.7239   -1.8930 C   0  0  0  0  0  0  0  0  0  0  0  0
   -7.0582    1.8529   -1.0541 C   0  0  0  0  0  0  0  0  0  0  0  0
   -6.6941    1.9841    0.2940 C   0  0  0  0  0  0  0  0  0  0  0  0
   -7.1901    3.0387    1.0611 C   0  0  0  0  0  0  0  0  0  0  0  0
   -8.0547    3.9612    0.4864 C   0  0  0  0  0  0  0  0  0  0  0  0
   -8.5146    4.9763    1.2717 O   0  0  0  0  0  0  0  0  0  0  0  0
   -8.4352    3.8460   -0.8462 C   0  0  0  0  0  0  0  0  0  0  0  0
   -7.9371    2.7913   -1.6150 C   0  0  0  0  0  0  0  0  0  0  0  0
   -5.3056    2.1653   -3.6049 C   0  0  0  0  0  0  0  0  0  0  0  0
   -4.7770    3.2662   -3.5649 O   0  0  0  0  0  0  0  0  0  0  0  0
   -6.1129    1.8458   -4.6398 O   0  0  0  0  0  0  0  0  0  0  0  0
   -1.8389    3.1401   -0.7046 C   0  0  1  0  0  0  0  0  0  0  0  0
   -1.5526    3.9145   -1.9871 C   0  0  0  0  0  0  0  0  0  0  0  0
   -3.1260    3.5208   -0.2002 O   0  0  0  0  0  0  0  0  0  0  0  0
    1.8963   -2.7794    2.2227 C   0  0  0  0  0  0  0  0  0  0  0  0
    2.1238   -4.0432    3.0580 C   0  0  0  0  0  0  0  0  0  0  0  0
    1.6360   -1.5849    3.1466 C   0  0  0  0  0  0  0  0  0  0  0  0
    8.8019   -1.6794    0.1981 H   0  0  0  0  0  0  0  0  0  0  0  0
    7.8751   -3.1314   -0.2010 H   0  0  0  0  0  0  0  0  0  0  0  0
    9.5158   -3.2850    0.4142 H   0  0  0  0  0  0  0  0  0  0  0  0
    7.8860   -3.8013    2.2172 H   0  0  0  0  0  0  0  0  0  0  0  0
   10.1289   -2.7617    2.6743 H   0  0  0  0  0  0  0  0  0  0  0  0
    9.3659   -1.1632    2.7142 H   0  0  0  0  0  0  0  0  0  0  0  0
    8.9501   -2.3951    3.9257 H   0  0  0  0  0  0  0  0  0  0  0  0
    6.8313   -1.0000    1.5622 H   0  0  0  0  0  0  0  0  0  0  0  0
    7.1406   -1.0878    3.9252 H   0  0  0  0  0  0  0  0  0  0  0  0
    6.3557   -2.5153    4.0292 H   0  0  0  0  0  0  0  0  0  0  0  0
    4.3771   -1.3932    2.4663 H   0  0  0  0  0  0  0  0  0  0  0  0
    3.2080   -3.4561    0.6358 H   0  0  0  0  0  0  0  0  0  0  0  0
    1.2423   -2.5207   -0.5613 H   0  0  0  0  0  0  0  0  0  0  0  0
    1.9574    0.1600   -1.6402 H   0  0  0  0  0  0  0  0  0  0  0  0
    1.7511   -1.5017   -3.4456 H   0  0  0  0  0  0  0  0  0  0  0  0
    0.4102   -0.3559   -3.5292 H   0  0  0  0  0  0  0  0  0  0  0  0
   -1.4202   -1.8386   -2.6280 H   0  0  0  0  0  0  0  0  0  0  0  0
   -0.1491    1.3978   -2.1755 H   0  0  0  0  0  0  0  0  0  0  0  0
   -2.0684    1.1464    0.0915 H   0  0  0  0  0  0  0  0  0  0  0  0
   -4.2516    2.1469   -1.0207 H   0  0  0  0  0  0  0  0  0  0  0  0
   -4.8489    0.1430   -3.1520 H   0  0  0  0  0  0  0  0  0  0  0  0
   -7.2509    0.4361   -2.6394 H   0  0  0  0  0  0  0  0  0  0  0  0
   -6.3756   -0.1571   -1.2487 H   0  0  0  0  0  0  0  0  0  0  0  0
   -6.0185    1.2675    0.7571 H   0  0  0  0  0  0  0  0  0  0  0  0
   -6.9030    3.1387    2.1040 H   0  0  0  0  0  0  0  0  0  0  0  0
   -9.1199    5.5240    0.7459 H   0  0  0  0  0  0  0  0  0  0  0  0
   -9.1126    4.5611   -1.3017 H   0  0  0  0  0  0  0  0  0  0  0  0
   -8.2428    2.7071   -2.6558 H   0  0  0  0  0  0  0  0  0  0  0  0
   -6.0705    2.6350   -5.2205 H   0  0  0  0  0  0  0  0  0  0  0  0
   -1.1027    3.4392    0.0515 H   0  0  0  0  0  0  0  0  0  0  0  0
   -1.6195    4.9922   -1.8018 H   0  0  0  0  0  0  0  0  0  0  0  0
   -0.5536    3.6976   -2.3758 H   0  0  0  0  0  0  0  0  0  0  0  0
   -2.2871    3.6897   -2.7651 H   0  0  0  0  0  0  0  0  0  0  0  0
   -3.1190    4.4882   -0.0750 H   0  0  0  0  0  0  0  0  0  0  0  0
    0.9806   -2.9397    1.6393 H   0  0  0  0  0  0  0  0  0  0  0  0
    2.9980   -3.9447    3.7102 H   0  0  0  0  0  0  0  0  0  0  0  0
    1.2546   -4.2488    3.6920 H   0  0  0  0  0  0  0  0  0  0  0  0
    2.2772   -4.9138    2.4117 H   0  0  0  0  0  0  0  0  0  0  0  0
    0.7580   -1.7725    3.7746 H   0  0  0  0  0  0  0  0  0  0  0  0
    2.4830   -1.3939    3.8134 H   0  0  0  0  0  0  0  0  0  0  0  0
    1.4386   -0.6735    2.5738 H   0  0  0  0  0  0  0  0  0  0  0  0
  1  2  1  0
  2  3  1  0
  2  4  1  0
  4  5  1  0
  4  6  1  0
  6  7  2  0
  6  8  1  0
  8  9  1  0
  9 10  1  0
 10 11  2  0
 10 12  1  0
 12 13  1  0
 13 14  1  0
 14 15  1  0
 13 16  1  0
 16 17  2  0
 16 18  1  0
 18 19  1  0
 19 20  1  0
 20 21  2  0
 20 22  1  0
 22 23  1  0
 23 24  1  0
 24 25  1  0
 25 26  2  0
 26 27  1  0
 27 28  2  0
 28 29  1  0
 28 30  1  0
 30 31  2  0
 23 32  1  0
 32 33  2  0
 32 34  1  0
 19 35  1  0
 35 36  1  0
 35 37  1  0
  9 38  1  0
 38 39  1  0
 38 40  1  0
 31 25  1  0
  1 41  1  0
  1 42  1  0
  1 43  1  0
  2 44  1  0
  3 45  1  0
  3 46  1  0
  3 47  1  0
  4 48  1  6
  5 49  1  0
  5 50  1  0
  8 51  1  0
  9 52  1  6
 12 53  1  0
 13 54  1  6
 14 55  1  0
 14 56  1  0
 15 57  1  0
 18 58  1  0
 19 59  1  1
 22 60  1  0
 23 61  1  6
 24 62  1  0
 24 63  1  0
 26 64  1  0
 27 65  1  0
 29 66  1  0
 30 67  1  0
 31 68  1  0
 34 69  1  0
 35 70  1  1
 36 71  1  0
 36 72  1  0
 36 73  1  0
 37 74  1  0
 38 75  1  0
 39 76  1  0
 39 77  1  0
 39 78  1  0
 40 79  1  0
 40 80  1  0
 40 81  1  0
M  END
$$$$
VVCTY.sdf
     RDKit          3D

 81 81  0  0  0  0  0  0  0  0999 V2000
    8.1958   -4.5544    1.6668 C   0  0  0  0  0  0  0  0  0  0  0  0
    7.9445   -3.0702    1.9512 C   0  0  0  0  0  0  0  0  0  0  0  0
    7.3371   -2.9067    3.3484 C   0  0  0  0  0  0  0  0  0  0  0  0
    7.1219   -2.4129    0.8213 C   0  0  2  0  0  0  0  0  0  0  0  0
    7.0229   -0.9414    1.0284 N   0  0  0  0  0  0  0  0  0  0  0  0
    5.6955   -2.9954    0.6847 C   0  0  0  0  0  0  0  0  0  0  0  0
    5.4369   -3.9704   -0.0138 O   0  0  0  0  0  0  0  0  0  0  0  0
    4.7582   -2.3152    1.4361 N   0  0  0  0  0  0  0  0  0  0  0  0
    3.3373   -2.4597    1.1560 C   0  0  2  0  0  0  0  0  0  0  0  0
    2.9629   -1.4593    0.0341 C   0  0  0  0  0  0  0  0  0  0  0  0
    3.6793   -0.5085   -0.2826 O   0  0  0  0  0  0  0  0  0  0  0  0
    1.7485   -1.7043   -0.5724 N   0  0  0  0  0  0  0  0  0  0  0  0
    1.1352   -0.6984   -1.4368 C   0  0  1  0  0  0  0  0  0  0  0  0
    0.2733   -1.3406   -2.5333 C   0  0  0  0  0  0  0  0  0  0  0  0
   -1.0823   -2.3938   -1.9064 S   0  0  0  0  0  0  0  0  0  0  0  0
    0.3157    0.2750   -0.5617 C   0  0  0  0  0  0  0  0  0  0  0  0
   -0.0277    0.0016    0.5879 O   0  0  0  0  0  0  0  0  0  0  0  0
   -0.0296    1.4628   -1.1801 N   0  0  0  0  0  0  0  0  0  0  0  0
   -1.0882    2.2951   -0.6002 C   0  0  2  0  0  0  0  0  0  0  0  0
   -2.4315    1.8390   -1.2145 C   0  0  0  0  0  0  0  0  0  0  0  0
   -2.4927    1.0088   -2.1216 O   0  0  0  0  0  0  0  0  0  0  0  0
   -3.5435    2.4387   -0.6661 N   0  0  0  0  0  0  0  0  0  0  0  0
   -4.8746    2.2516   -1.2537 C   0  0  1  0  0  0  0  0  0  0  0  0
   -5.9540    2.4525   -0.1834 C   0  0  0  0  0  0  0  0  0  0  0  0
   -7.3471    2.1012   -0.6483 C   0  0  0  0  0  0  0  0  0  0  0  0
   -7.7186    0.7609   -0.8308 C   0  0  0  0  0  0  0  0  0  0  0  0
   -9.0021    0.4345   -1.2747 C   0  0  0  0  0  0  0  0  0  0  0  0
   -9.9149    1.4508   -1.5349 C   0  0  0  0  0  0  0  0  0  0  0  0
  -11.1776    1.1776   -1.9707 O   0  0  0  0  0  0  0  0  0  0  0  0
   -9.5656    2.7835   -1.3575 C   0  0  0  0  0  0  0  0  0  0  0  0
   -8.2833    3.1104   -0.9146 C   0  0  0  0  0  0  0  0  0  0  0  0
   -5.0424    3.2856   -2.3663 C   0  0  0  0  0  0  0  0  0  0  0  0
   -4.6503    4.4441   -2.3390 O   0  0  0  0  0  0  0  0  0  0  0  0
   -5.7035    2.8138   -3.4411 O   0  0  0  0  0  0  0  0  0  0  0  0
   -0.8372    3.8016   -0.8180 C   0  0  1  0  0  0  0  0  0  0  0  0
   -0.8636    4.2380   -2.2798 C   0  0  0  0  0  0  0  0  0  0  0  0
   -1.8098    4.5615   -0.0864 O   0  0  0  0  0  0  0  0  0  0  0  0
    2.4667   -2.2510    2.4159 C   0  0  0  0  0  0  0  0  0  0  0  0
    2.7074   -3.3683    3.4357 C   0  0  0  0  0  0  0  0  0  0  0  0
    2.6776   -0.8862    3.0801 C   0  0  0  0  0  0  0  0  0  0  0  0
    8.8878   -4.9754    2.4043 H   0  0  0  0  0  0  0  0  0  0  0  0
    7.2707   -5.1383    1.7096 H   0  0  0  0  0  0  0  0  0  0  0  0
    8.6425   -4.6919    0.6765 H   0  0  0  0  0  0  0  0  0  0  0  0
    8.9286   -2.5811    1.9683 H   0  0  0  0  0  0  0  0  0  0  0  0
    7.1654   -1.8539    3.5923 H   0  0  0  0  0  0  0  0  0  0  0  0
    8.0158   -3.3109    4.1078 H   0  0  0  0  0  0  0  0  0  0  0  0
    6.3867   -3.4415    3.4421 H   0  0  0  0  0  0  0  0  0  0  0  0
    7.6232   -2.5689   -0.1421 H   0  0  0  0  0  0  0  0  0  0  0  0
    6.5390   -0.5396    0.2189 H   0  0  0  0  0  0  0  0  0  0  0  0
    7.9638   -0.5484    1.0092 H   0  0  0  0  0  0  0  0  0  0  0  0
    5.0876   -1.3841    1.6910 H   0  0  0  0  0  0  0  0  0  0  0  0
    3.1598   -3.4666    0.7570 H   0  0  0  0  0  0  0  0  0  0  0  0
    1.0952   -2.3112   -0.0881 H   0  0  0  0  0  0  0  0  0  0  0  0
    1.9316   -0.1160   -1.9162 H   0  0  0  0  0  0  0  0  0  0  0  0
   -0.1691   -0.5784   -3.1821 H   0  0  0  0  0  0  0  0  0  0  0  0
    0.9061   -1.9788   -3.1598 H   0  0  0  0  0  0  0  0  0  0  0  0
   -1.8962   -1.3880   -1.5379 H   0  0  0  0  0  0  0  0  0  0  0  0
    0.0098    1.4684   -2.1922 H   0  0  0  0  0  0  0  0  0  0  0  0
   -1.1580    2.1009    0.4775 H   0  0  0  0  0  0  0  0  0  0  0  0
   -3.3617    3.3389   -0.2155 H   0  0  0  0  0  0  0  0  0  0  0  0
   -4.9204    1.2474   -1.6905 H   0  0  0  0  0  0  0  0  0  0  0  0
   -5.7236    1.8351    0.6956 H   0  0  0  0  0  0  0  0  0  0  0  0
   -5.9371    3.4893    0.1797 H   0  0  0  0  0  0  0  0  0  0  0  0
   -7.0095   -0.0396   -0.6286 H   0  0  0  0  0  0  0  0  0  0  0  0
   -9.2669   -0.6093   -1.4103 H   0  0  0  0  0  0  0  0  0  0  0  0
  -11.2760    0.2143   -2.0453 H   0  0  0  0  0  0  0  0  0  0  0  0
  -10.2902    3.5662   -1.5632 H   0  0  0  0  0  0  0  0  0  0  0  0
   -8.0240    4.1583   -0.7807 H   0  0  0  0  0  0  0  0  0  0  0  0
   -5.7580    3.5717   -4.0586 H   0  0  0  0  0  0  0  0  0  0  0  0
    0.1436    4.0535   -0.3965 H   0  0  0  0  0  0  0  0  0  0  0  0
   -0.1156    3.7066   -2.8749 H   0  0  0  0  0  0  0  0  0  0  0  0
   -0.6601    5.3118   -2.3568 H   0  0  0  0  0  0  0  0  0  0  0  0
   -1.8488    4.0802   -2.7292 H   0  0  0  0  0  0  0  0  0  0  0  0
   -1.5906    5.5049   -0.2059 H   0  0  0  0  0  0  0  0  0  0  0  0
    1.4107   -2.3060    2.1222 H   0  0  0  0  0  0  0  0  0  0  0  0
    2.0281   -3.2654    4.2887 H   0  0  0  0  0  0  0  0  0  0  0  0
    2.5293   -4.3506    2.9856 H   0  0  0  0  0  0  0  0  0  0  0  0
    3.7324   -3.3505    3.8206 H   0  0  0  0  0  0  0  0  0  0  0  0
    2.4849   -0.0679    2.3796 H   0  0  0  0  0  0  0  0  0  0  0  0
    3.6962   -0.7745    3.4656 H   0  0  0  0  0  0  0  0  0  0  0  0
    1.9904   -0.7626    3.9244 H   0  0  0  0  0  0  0  0  0  0  0  0
  1  2  1  0
  2  3  1  0
  2  4  1  0
  4  5  1  0
  4  6  1  0
  6  7  2  0
  6  8  1  0
  8  9  1  0
  9 10  1  0
 10 11  2  0
 10 12  1  0
 12 13  1  0
 13 14  1  0
 14 15  1  0
 13 16  1  0
 16 17  2  0
 16 18  1  0
 18 19  1  0
 19 20  1  0
 20 21  2  0
 20 22  1  0
 22 23  1  0
 23 24  1  0
 24 25  1  0
 25 26  2  0
 26 27  1  0
 27 28  2  0
 28 29  1  0
 28 30  1  0
 30 31  2  0
 23 32  1  0
 32 33  2  0
 32 34  1  0
 19 35  1  0
 35 36  1  0
 35 37  1  0
  9 38  1  0
 38 39  1  0
 38 40  1  0
 31 25  1  0
  1 41  1  0
  1 42  1  0
  1 43  1  0
  2 44  1  0
  3 45  1  0
  3 46  1  0
  3 47  1  0
  4 48  1  6
  5 49  1  0
  5 50  1  0
  8 51  1  0
  9 52  1  6
 12 53  1  0
 13 54  1  6
 14 55  1  0
 14 56  1  0
 15 57  1  0
 18 58  1  0
 19 59  1  1
 22 60  1  0
 23 61  1  6
 24 62  1  0
 24 63  1  0
 26 64  1  0
 27 65  1  0
 29 66  1  0
 30 67  1  0
 31 68  1  0
 34 69  1  0
 35 70  1  1
 36 71  1  0
 36 72  1  0
 36 73  1  0
 37 74  1  0
 38 75  1  0
 39 76  1  0
 39 77  1  0
 39 78  1  0
 40 79  1  0
 40 80  1  0
 40 81  1  0
M  END
$$$$
VVCTY.sdf
     RDKit          3D

 81 81  0  0  0  0  0  0  0  0999 V2000
    4.1584   -4.7855    0.1778 C   0  0  0  0  0  0  0  0  0  0  0  0
    5.0175   -5.1908    1.3823 C   0  0  0  0  0  0  0  0  0  0  0  0
    6.0135   -6.2696    0.9363 C   0  0  0  0  0  0  0  0  0  0  0  0
    5.7364   -3.9741    2.0124 C   0  0  2  0  0  0  0  0  0  0  0  0
    6.5847   -4.3849    3.1537 N   0  0  0  0  0  0  0  0  0  0  0  0
    4.7142   -2.9327    2.5304 C   0  0  0  0  0  0  0  0  0  0  0  0
    4.1538   -3.0446    3.6191 O   0  0  0  0  0  0  0  0  0  0  0  0
    4.5093   -1.8689    1.6844 N   0  0  0  0  0  0  0  0  0  0  0  0
    3.4664   -0.8752    1.9215 C   0  0  2  0  0  0  0  0  0  0  0  0
    2.6950   -0.6991    0.5961 C   0  0  0  0  0  0  0  0  0  0  0  0
    3.1179   -1.1326   -0.4764 O   0  0  0  0  0  0  0  0  0  0  0  0
    1.5168   -0.0028    0.6938 N   0  0  0  0  0  0  0  0  0  0  0  0
    0.6440    0.2024   -0.4575 C   0  0  1  0  0  0  0  0  0  0  0  0
   -0.1129   -1.0676   -0.8817 C   0  0  0  0  0  0  0  0  0  0  0  0
   -1.1033   -1.8387    0.4528 S   0  0  0  0  0  0  0  0  0  0  0  0
   -0.3366    1.3408   -0.1373 C   0  0  0  0  0  0  0  0  0  0  0  0
   -0.5454    1.7360    1.0113 O   0  0  0  0  0  0  0  0  0  0  0  0
   -1.0057    1.8647   -1.2138 N   0  0  0  0  0  0  0  0  0  0  0  0
   -1.9905    2.9433   -1.0694 C   0  0  2  0  0  0  0  0  0  0  0  0
   -2.8762    2.8708   -2.3218 C   0  0  0  0  0  0  0  0  0  0  0  0
   -2.4359    2.5040   -3.4112 O   0  0  0  0  0  0  0  0  0  0  0  0
   -4.1809    3.2492   -2.1367 N   0  0  0  0  0  0  0  0  0  0  0  0
   -5.1857    3.1410   -3.1985 C   0  0  1  0  0  0  0  0  0  0  0  0
   -5.5457    1.6904   -3.5691 C   0  0  0  0  0  0  0  0  0  0  0  0
   -5.7634    0.7643   -2.3907 C   0  0  0  0  0  0  0  0  0  0  0  0
   -4.7689   -0.1606   -2.0321 C   0  0  0  0  0  0  0  0  0  0  0  0
   -4.9487   -1.0140   -0.9417 C   0  0  0  0  0  0  0  0  0  0  0  0
   -6.1238   -0.9394   -0.2038 C   0  0  0  0  0  0  0  0  0  0  0  0
   -6.3404   -1.7495    0.8708 O   0  0  0  0  0  0  0  0  0  0  0  0
   -7.1208   -0.0340   -0.5444 C   0  0  0  0  0  0  0  0  0  0  0  0
   -6.9453    0.8139   -1.6395 C   0  0  0  0  0  0  0  0  0  0  0  0
   -6.4191    3.9294   -2.7687 C   0  0  0  0  0  0  0  0  0  0  0  0
   -6.6365    4.3681   -1.6483 O   0  0  0  0  0  0  0  0  0  0  0  0
   -7.3017    4.1325   -3.7658 O   0  0  0  0  0  0  0  0  0  0  0  0
   -1.3251    4.3344   -0.9486 C   0  0  1  0  0  0  0  0  0  0  0  0
   -2.3091    5.4269   -0.5457 C   0  0  0  0  0  0  0  0  0  0  0  0
   -0.2725    4.3439    0.0265 O   0  0  0  0  0  0  0  0  0  0  0  0
    4.0249    0.4685    2.4408 C   0  0  0  0  0  0  0  0  0  0  0  0
    5.0869    1.0718    1.5153 C   0  0  0  0  0  0  0  0  0  0  0  0
    4.5895    0.3280    3.8572 C   0  0  0  0  0  0  0  0  0  0  0  0
    3.7093   -5.6662   -0.2941 H   0  0  0  0  0  0  0  0  0  0  0  0
    4.7554   -4.2650   -0.5786 H   0  0  0  0  0  0  0  0  0  0  0  0
    3.3351   -4.1298    0.4773 H   0  0  0  0  0  0  0  0  0  0  0  0
    4.3464   -5.6382    2.1280 H   0  0  0  0  0  0  0  0  0  0  0  0
    6.7316   -5.8693    0.2124 H   0  0  0  0  0  0  0  0  0  0  0  0
    6.5736   -6.6746    1.7849 H   0  0  0  0  0  0  0  0  0  0  0  0
    5.4915   -7.1093    0.4646 H   0  0  0  0  0  0  0  0  0  0  0  0
    6.3890   -3.4991    1.2700 H   0  0  0  0  0  0  0  0  0  0  0  0
    6.9970   -3.5463    3.5653 H   0  0  0  0  0  0  0  0  0  0  0  0
    5.9556   -4.7336    3.8839 H   0  0  0  0  0  0  0  0  0  0  0  0
    4.8386   -1.9370    0.7253 H   0  0  0  0  0  0  0  0  0  0  0  0
    2.7513   -1.2806    2.6486 H   0  0  0  0  0  0  0  0  0  0  0  0
    1.1389    0.2421    1.6052 H   0  0  0  0  0  0  0  0  0  0  0  0
    1.2754    0.5342   -1.2915 H   0  0  0  0  0  0  0  0  0  0  0  0
   -0.7946   -0.8504   -1.7107 H   0  0  0  0  0  0  0  0  0  0  0  0
    0.5927   -1.8277   -1.2323 H   0  0  0  0  0  0  0  0  0  0  0  0
   -1.8106   -0.7481    0.7896 H   0  0  0  0  0  0  0  0  0  0  0  0
   -0.7002    1.6646   -2.1630 H   0  0  0  0  0  0  0  0  0  0  0  0
   -2.5846    2.7218   -0.1747 H   0  0  0  0  0  0  0  0  0  0  0  0
   -4.5450    3.3682   -1.1944 H   0  0  0  0  0  0  0  0  0  0  0  0
   -4.7733    3.6488   -4.0796 H   0  0  0  0  0  0  0  0  0  0  0  0
   -4.7408    1.2768   -4.1909 H   0  0  0  0  0  0  0  0  0  0  0  0
   -6.4405    1.6625   -4.2042 H   0  0  0  0  0  0  0  0  0  0  0  0
   -3.8472   -0.2256   -2.6076 H   0  0  0  0  0  0  0  0  0  0  0  0
   -4.1721   -1.7288   -0.6899 H   0  0  0  0  0  0  0  0  0  0  0  0
   -5.5780   -2.3432    0.9731 H   0  0  0  0  0  0  0  0  0  0  0  0
   -8.0369    0.0071    0.0384 H   0  0  0  0  0  0  0  0  0  0  0  0
   -7.7445    1.5044   -1.8972 H   0  0  0  0  0  0  0  0  0  0  0  0
   -8.0190    4.6640   -3.3583 H   0  0  0  0  0  0  0  0  0  0  0  0
   -0.8626    4.6105   -1.9035 H   0  0  0  0  0  0  0  0  0  0  0  0
   -2.8031    5.1778    0.3999 H   0  0  0  0  0  0  0  0  0  0  0  0
   -1.7821    6.3738   -0.3834 H   0  0  0  0  0  0  0  0  0  0  0  0
   -3.0734    5.5919   -1.3095 H   0  0  0  0  0  0  0  0  0  0  0  0
   -0.4805    3.6766    0.7132 H   0  0  0  0  0  0  0  0  0  0  0  0
    3.1975    1.1880    2.4958 H   0  0  0  0  0  0  0  0  0  0  0  0
    4.6921    1.2282    0.5065 H   0  0  0  0  0  0  0  0  0  0  0  0
    5.9712    0.4303    1.4407 H   0  0  0  0  0  0  0  0  0  0  0  0
    5.4153    2.0463    1.8932 H   0  0  0  0  0  0  0  0  0  0  0  0
    5.4701   -0.3222    3.8799 H   0  0  0  0  0  0  0  0  0  0  0  0
    4.8879    1.3055    4.2513 H   0  0  0  0  0  0  0  0  0  0  0  0
    3.8382   -0.0882    4.5365 H   0  0  0  0  0  0  0  0  0  0  0  0
  1  2  1  0
  2  3  1  0
  2  4  1  0
  4  5  1  0
  4  6  1  0
  6  7  2  0
  6  8  1  0
  8  9  1  0
  9 10  1  0
 10 11  2  0
 10 12  1  0
 12 13  1  0
 13 14  1  0
 14 15  1  0
 13 16  1  0
 16 17  2  0
 16 18  1  0
 18 19  1  0
 19 20  1  0
 20 21  2  0
 20 22  1  0
 22 23  1  0
 23 24  1  0
 24 25  1  0
 25 26  2  0
 26 27  1  0
 27 28  2  0
 28 29  1  0
 28 30  1  0
 30 31  2  0
 23 32  1  0
 32 33  2  0
 32 34  1  0
 19 35  1  0
 35 36  1  0
 35 37  1  0
  9 38  1  0
 38 39  1  0
 38 40  1  0
 31 25  1  0
  1 41  1  0
  1 42  1  0
  1 43  1  0
  2 44  1  0
  3 45  1  0
  3 46  1  0
  3 47  1  0
  4 48  1  6
  5 49  1  0
  5 50  1  0
  8 51  1  0
  9 52  1  1
 12 53  1  0
 13 54  1  6
 14 55  1  0
 14 56  1  0
 15 57  1  0
 18 58  1  0
 19 59  1  1
 22 60  1  0
 23 61  1  6
 24 62  1  0
 24 63  1  0
 26 64  1  0
 27 65  1  0
 29 66  1  0
 30 67  1  0
 31 68  1  0
 34 69  1  0
 35 70  1  6
 36 71  1  0
 36 72  1  0
 36 73  1  0
 37 74  1  0
 38 75  1  0
 39 76  1  0
 39 77  1  0
 39 78  1  0
 40 79  1  0
 40 80  1  0
 40 81  1  0
M  END
$$$$
VVCTY.sdf
     RDKit          3D

 81 81  0  0  0  0  0  0  0  0999 V2000
    3.9212   -6.0151   -0.3891 C   0  0  0  0  0  0  0  0  0  0  0  0
    3.2894   -4.6414   -0.1244 C   0  0  0  0  0  0  0  0  0  0  0  0
    4.2340   -3.5636   -0.6687 C   0  0  0  0  0  0  0  0  0  0  0  0
    2.9814   -4.4209    1.3756 C   0  0  2  0  0  0  0  0  0  0  0  0
    2.2126   -5.5523    1.9404 N   0  0  0  0  0  0  0  0  0  0  0  0
    2.1453   -3.1322    1.5986 C   0  0  0  0  0  0  0  0  0  0  0  0
    0.9179   -3.1139    1.4835 O   0  0  0  0  0  0  0  0  0  0  0  0
    2.8785   -2.0309    1.9865 N   0  0  0  0  0  0  0  0  0  0  0  0
    2.2433   -0.7230    2.1580 C   0  0  2  0  0  0  0  0  0  0  0  0
    2.2410   -0.0595    0.7666 C   0  0  0  0  0  0  0  0  0  0  0  0
    3.2533    0.0135    0.0695 O   0  0  0  0  0  0  0  0  0  0  0  0
    1.0270    0.4365    0.3606 N   0  0  0  0  0  0  0  0  0  0  0  0
    0.8361    1.0929   -0.9290 C   0  0  1  0  0  0  0  0  0  0  0  0
    0.3237    0.1433   -2.0253 C   0  0  0  0  0  0  0  0  0  0  0  0
    1.3871   -1.2922   -2.3787 S   0  0  0  0  0  0  0  0  0  0  0  0
   -0.2092    2.2058   -0.7281 C   0  0  0  0  0  0  0  0  0  0  0  0
   -0.9682    2.2394    0.2406 O   0  0  0  0  0  0  0  0  0  0  0  0
   -0.2946    3.1347   -1.7478 N   0  0  0  0  0  0  0  0  0  0  0  0
   -1.4718    4.0239   -1.8153 C   0  0  2  0  0  0  0  0  0  0  0  0
   -2.5803    3.1604   -2.4373 C   0  0  0  0  0  0  0  0  0  0  0  0
   -2.6633    2.9599   -3.6469 O   0  0  0  0  0  0  0  0  0  0  0  0
   -3.3641    2.4963   -1.5118 N   0  0  0  0  0  0  0  0  0  0  0  0
   -4.2694    1.4326   -1.9599 C   0  0  1  0  0  0  0  0  0  0  0  0
   -4.8975    0.6613   -0.7890 C   0  0  0  0  0  0  0  0  0  0  0  0
   -3.8888   -0.0356    0.0960 C   0  0  0  0  0  0  0  0  0  0  0  0
   -3.6977    0.3962    1.4164 C   0  0  0  0  0  0  0  0  0  0  0  0
   -2.7633   -0.2341    2.2376 C   0  0  0  0  0  0  0  0  0  0  0  0
   -2.0154   -1.2939    1.7429 C   0  0  0  0  0  0  0  0  0  0  0  0
   -1.1035   -1.8645    2.5778 O   0  0  0  0  0  0  0  0  0  0  0  0
   -2.1924   -1.7441    0.4404 C   0  0  0  0  0  0  0  0  0  0  0  0
   -3.1350   -1.1185   -0.3809 C   0  0  0  0  0  0  0  0  0  0  0  0
   -5.4183    2.0305   -2.7769 C   0  0  0  0  0  0  0  0  0  0  0  0
   -5.9223    3.1354   -2.6452 O   0  0  0  0  0  0  0  0  0  0  0  0
   -5.9102    1.1647   -3.6895 O   0  0  0  0  0  0  0  0  0  0  0  0
   -1.1596    5.2542   -2.6838 C   0  0  1  0  0  0  0  0  0  0  0  0
   -2.3251    6.2326   -2.7463 C   0  0  0  0  0  0  0  0  0  0  0  0
   -0.0390    5.9611   -2.1301 O   0  0  0  0  0  0  0  0  0  0  0  0
    3.0104    0.1492    3.1752 C   0  0  0  0  0  0  0  0  0  0  0  0
    2.3477    1.5205    3.3508 C   0  0  0  0  0  0  0  0  0  0  0  0
    3.0982   -0.5418    4.5412 C   0  0  0  0  0  0  0  0  0  0  0  0
    4.8372   -6.1487    0.1966 H   0  0  0  0  0  0  0  0  0  0  0  0
    4.1784   -6.1274   -1.4481 H   0  0  0  0  0  0  0  0  0  0  0  0
    3.2330   -6.8287   -0.1391 H   0  0  0  0  0  0  0  0  0  0  0  0
    2.3538   -4.5836   -0.6968 H   0  0  0  0  0  0  0  0  0  0  0  0
    4.4668   -3.7461   -1.7235 H   0  0  0  0  0  0  0  0  0  0  0  0
    3.7847   -2.5706   -0.6072 H   0  0  0  0  0  0  0  0  0  0  0  0
    5.1778   -3.5456   -0.1131 H   0  0  0  0  0  0  0  0  0  0  0  0
    3.9162   -4.3431    1.9435 H   0  0  0  0  0  0  0  0  0  0  0  0
    1.9932   -5.3441    2.9155 H   0  0  0  0  0  0  0  0  0  0  0  0
    1.3030   -5.5725    1.4716 H   0  0  0  0  0  0  0  0  0  0  0  0
    3.8588   -2.0148    1.7272 H   0  0  0  0  0  0  0  0  0  0  0  0
    1.2163   -0.8703    2.5009 H   0  0  0  0  0  0  0  0  0  0  0  0
    0.2088    0.3439    0.9609 H   0  0  0  0  0  0  0  0  0  0  0  0
    1.7791    1.5612   -1.2358 H   0  0  0  0  0  0  0  0  0  0  0  0
   -0.6687   -0.2398   -1.7698 H   0  0  0  0  0  0  0  0  0  0  0  0
    0.2092    0.6882   -2.9684 H   0  0  0  0  0  0  0  0  0  0  0  0
    2.5348   -0.7597   -1.9192 H   0  0  0  0  0  0  0  0  0  0  0  0
    0.1278    2.9014   -2.6406 H   0  0  0  0  0  0  0  0  0  0  0  0
   -1.7418    4.3329   -0.7988 H   0  0  0  0  0  0  0  0  0  0  0  0
   -2.9472    2.3915   -0.5860 H   0  0  0  0  0  0  0  0  0  0  0  0
   -3.6881    0.7681   -2.6111 H   0  0  0  0  0  0  0  0  0  0  0  0
   -5.5986   -0.0951   -1.1666 H   0  0  0  0  0  0  0  0  0  0  0  0
   -5.5058    1.3461   -0.1823 H   0  0  0  0  0  0  0  0  0  0  0  0
   -4.2719    1.2280    1.8187 H   0  0  0  0  0  0  0  0  0  0  0  0
   -2.6176    0.1037    3.2597 H   0  0  0  0  0  0  0  0  0  0  0  0
   -0.5394   -2.4901    2.0683 H   0  0  0  0  0  0  0  0  0  0  0  0
   -1.6123   -2.5789    0.0562 H   0  0  0  0  0  0  0  0  0  0  0  0
   -3.2762   -1.4873   -1.3948 H   0  0  0  0  0  0  0  0  0  0  0  0
   -6.6006    1.6843   -4.1539 H   0  0  0  0  0  0  0  0  0  0  0  0
   -0.8790    4.9559   -3.7007 H   0  0  0  0  0  0  0  0  0  0  0  0
   -2.5960    6.5822   -1.7439 H   0  0  0  0  0  0  0  0  0  0  0  0
   -3.2081    5.7853   -3.2116 H   0  0  0  0  0  0  0  0  0  0  0  0
   -2.0450    7.1216   -3.3221 H   0  0  0  0  0  0  0  0  0  0  0  0
    0.6052    5.2947   -1.8307 H   0  0  0  0  0  0  0  0  0  0  0  0
    4.0347    0.3132    2.8148 H   0  0  0  0  0  0  0  0  0  0  0  0
    2.8734    2.1119    4.1083 H   0  0  0  0  0  0  0  0  0  0  0  0
    2.3680    2.0962    2.4202 H   0  0  0  0  0  0  0  0  0  0  0  0
    1.3036    1.4187    3.6663 H   0  0  0  0  0  0  0  0  0  0  0  0
    2.1012   -0.7579    4.9403 H   0  0  0  0  0  0  0  0  0  0  0  0
    3.6218    0.0926    5.2646 H   0  0  0  0  0  0  0  0  0  0  0  0
    3.6506   -1.4847    4.4764 H   0  0  0  0  0  0  0  0  0  0  0  0
  1  2  1  0
  2  3  1  0
  2  4  1  0
  4  5  1  0
  4  6  1  0
  6  7  2  0
  6  8  1  0
  8  9  1  0
  9 10  1  0
 10 11  2  0
 10 12  1  0
 12 13  1  0
 13 14  1  0
 14 15  1  0
 13 16  1  0
 16 17  2  0
 16 18  1  0
 18 19  1  0
 19 20  1  0
 20 21  2  0
 20 22  1  0
 22 23  1  0
 23 24  1  0
 24 25  1  0
 25 26  2  0
 26 27  1  0
 27 28  2  0
 28 29  1  0
 28 30  1  0
 30 31  2  0
 23 32  1  0
 32 33  2  0
 32 34  1  0
 19 35  1  0
 35 36  1  0
 35 37  1  0
  9 38  1  0
 38 39  1  0
 38 40  1  0
 31 25  1  0
  1 41  1  0
  1 42  1  0
  1 43  1  0
  2 44  1  0
  3 45  1  0
  3 46  1  0
  3 47  1  0
  4 48  1  1
  5 49  1  0
  5 50  1  0
  8 51  1  0
  9 52  1  1
 12 53  1  0
 13 54  1  6
 14 55  1  0
 14 56  1  0
 15 57  1  0
 18 58  1  0
 19 59  1  1
 22 60  1  0
 23 61  1  6
 24 62  1  0
 24 63  1  0
 26 64  1  0
 27 65  1  0
 29 66  1  0
 30 67  1  0
 31 68  1  0
 34 69  1  0
 35 70  1  6
 36 71  1  0
 36 72  1  0
 36 73  1  0
 37 74  1  0
 38 75  1  0
 39 76  1  0
 39 77  1  0
 39 78  1  0
 40 79  1  0
 40 80  1  0
 40 81  1  0
M  END
$$$$
VVCTY.sdf
     RDKit          3D

 81 81  0  0  0  0  0  0  0  0999 V2000
    3.1144   -6.2734    2.3775 C   0  0  0  0  0  0  0  0  0  0  0  0
    4.3409   -5.6132    1.7395 C   0  0  0  0  0  0  0  0  0  0  0  0
    5.1709   -4.9117    2.8193 C   0  0  0  0  0  0  0  0  0  0  0  0
    3.9386   -4.7034    0.5579 C   0  0  2  0  0  0  0  0  0  0  0  0
    5.1437   -4.2012   -0.1576 N   0  0  0  0  0  0  0  0  0  0  0  0
    3.0713   -3.4963    0.9854 C   0  0  0  0  0  0  0  0  0  0  0  0
    1.8474   -3.5441    1.0633 O   0  0  0  0  0  0  0  0  0  0  0  0
    3.8103   -2.3666    1.2742 N   0  0  0  0  0  0  0  0  0  0  0  0
    3.1607   -1.0681    1.3880 C   0  0  2  0  0  0  0  0  0  0  0  0
    2.9553   -0.5714   -0.0617 C   0  0  0  0  0  0  0  0  0  0  0  0
    3.7710   -0.7702   -0.9624 O   0  0  0  0  0  0  0  0  0  0  0  0
    1.7941    0.1323   -0.2711 N   0  0  0  0  0  0  0  0  0  0  0  0
    1.4544    0.7061   -1.5732 C   0  0  1  0  0  0  0  0  0  0  0  0
    0.9906   -0.3738   -2.5613 C   0  0  0  0  0  0  0  0  0  0  0  0
    1.3195    0.0873   -4.2978 S   0  0  0  0  0  0  0  0  0  0  0  0
    0.3460    1.7472   -1.3171 C   0  0  0  0  0  0  0  0  0  0  0  0
   -0.1676    1.9005   -0.2060 O   0  0  0  0  0  0  0  0  0  0  0  0
   -0.0462    2.4783   -2.4088 N   0  0  0  0  0  0  0  0  0  0  0  0
   -0.8761    3.6916   -2.3061 C   0  0  2  0  0  0  0  0  0  0  0  0
   -2.3823    3.3687   -2.1341 C   0  0  0  0  0  0  0  0  0  0  0  0
   -3.2697    3.9756   -2.7304 O   0  0  0  0  0  0  0  0  0  0  0  0
   -2.6688    2.4332   -1.1633 N   0  0  0  0  0  0  0  0  0  0  0  0
   -4.0417    2.1979   -0.7066 C   0  0  1  0  0  0  0  0  0  0  0  0
   -4.1612    0.7885   -0.1144 C   0  0  0  0  0  0  0  0  0  0  0  0
   -5.5777    0.3789    0.2110 C   0  0  0  0  0  0  0  0  0  0  0  0
   -6.0077    0.3060    1.5435 C   0  0  0  0  0  0  0  0  0  0  0  0
   -7.3205   -0.0611    1.8420 C   0  0  0  0  0  0  0  0  0  0  0  0
   -8.2051   -0.3553    0.8122 C   0  0  0  0  0  0  0  0  0  0  0  0
   -9.4785   -0.7076    1.1493 O   0  0  0  0  0  0  0  0  0  0  0  0
   -7.7985   -0.2908   -0.5162 C   0  0  0  0  0  0  0  0  0  0  0  0
   -6.4844    0.0759   -0.8155 C   0  0  0  0  0  0  0  0  0  0  0  0
   -4.3665    3.2435    0.3593 C   0  0  0  0  0  0  0  0  0  0  0  0
   -3.6034    3.6622    1.2185 O   0  0  0  0  0  0  0  0  0  0  0  0
   -5.6361    3.6920    0.3000 O   0  0  0  0  0  0  0  0  0  0  0  0
   -0.6610    4.5695   -3.5638 C   0  0  1  0  0  0  0  0  0  0  0  0
   -0.9120    6.0478   -3.2883 C   0  0  0  0  0  0  0  0  0  0  0  0
    0.7015    4.4196   -4.0139 O   0  0  0  0  0  0  0  0  0  0  0  0
    4.0223   -0.0781    2.2022 C   0  0  0  0  0  0  0  0  0  0  0  0
    4.3187   -0.6271    3.6037 C   0  0  0  0  0  0  0  0  0  0  0  0
    3.3520    1.2933    2.3391 C   0  0  0  0  0  0  0  0  0  0  0  0
    3.4212   -7.0137    3.1244 H   0  0  0  0  0  0  0  0  0  0  0  0
    2.5140   -6.7926    1.6231 H   0  0  0  0  0  0  0  0  0  0  0  0
    2.4745   -5.5411    2.8803 H   0  0  0  0  0  0  0  0  0  0  0  0
    4.9604   -6.4250    1.3331 H   0  0  0  0  0  0  0  0  0  0  0  0
    5.5041   -5.6346    3.5724 H   0  0  0  0  0  0  0  0  0  0  0  0
    6.0660   -4.4433    2.3988 H   0  0  0  0  0  0  0  0  0  0  0  0
    4.5910   -4.1428    3.3392 H   0  0  0  0  0  0  0  0  0  0  0  0
    3.3502   -5.2783   -0.1681 H   0  0  0  0  0  0  0  0  0  0  0  0
    4.8329   -3.7087   -0.9999 H   0  0  0  0  0  0  0  0  0  0  0  0
    5.6796   -5.0027   -0.4914 H   0  0  0  0  0  0  0  0  0  0  0  0
    4.7401   -2.3970    0.8551 H   0  0  0  0  0  0  0  0  0  0  0  0
    2.1821   -1.2055    1.8641 H   0  0  0  0  0  0  0  0  0  0  0  0
    1.1418    0.2950    0.4926 H   0  0  0  0  0  0  0  0  0  0  0  0
    2.3497    1.2303   -1.9296 H   0  0  0  0  0  0  0  0  0  0  0  0
   -0.0831   -0.5647   -2.4566 H   0  0  0  0  0  0  0  0  0  0  0  0
    1.5063   -1.3237   -2.3874 H   0  0  0  0  0  0  0  0  0  0  0  0
    2.6563   -0.0252   -4.2270 H   0  0  0  0  0  0  0  0  0  0  0  0
    0.5861    2.4931   -3.2081 H   0  0  0  0  0  0  0  0  0  0  0  0
   -0.5462    4.2311   -1.4093 H   0  0  0  0  0  0  0  0  0  0  0  0
   -1.9210    2.2619   -0.4869 H   0  0  0  0  0  0  0  0  0  0  0  0
   -4.7156    2.3374   -1.5596 H   0  0  0  0  0  0  0  0  0  0  0  0
   -3.5368    0.7037    0.7856 H   0  0  0  0  0  0  0  0  0  0  0  0
   -3.7499    0.0542   -0.8206 H   0  0  0  0  0  0  0  0  0  0  0  0
   -5.3262    0.5348    2.3601 H   0  0  0  0  0  0  0  0  0  0  0  0
   -7.6519   -0.1170    2.8749 H   0  0  0  0  0  0  0  0  0  0  0  0
   -9.9761   -0.8798    0.3335 H   0  0  0  0  0  0  0  0  0  0  0  0
   -8.4831   -0.5190   -1.3267 H   0  0  0  0  0  0  0  0  0  0  0  0
   -6.1727    0.1244   -1.8570 H   0  0  0  0  0  0  0  0  0  0  0  0
   -5.7030    4.3406    1.0305 H   0  0  0  0  0  0  0  0  0  0  0  0
   -1.2990    4.2268   -4.3869 H   0  0  0  0  0  0  0  0  0  0  0  0
   -0.2131    6.4276   -2.5348 H   0  0  0  0  0  0  0  0  0  0  0  0
   -0.7423    6.6383   -4.1953 H   0  0  0  0  0  0  0  0  0  0  0  0
   -1.9327    6.2334   -2.9437 H   0  0  0  0  0  0  0  0  0  0  0  0
    0.8008    4.9770   -4.8075 H   0  0  0  0  0  0  0  0  0  0  0  0
    4.9829    0.0686    1.6904 H   0  0  0  0  0  0  0  0  0  0  0  0
    3.3931   -0.8317    4.1525 H   0  0  0  0  0  0  0  0  0  0  0  0
    4.9061    0.0905    4.1868 H   0  0  0  0  0  0  0  0  0  0  0  0
    4.8983   -1.5543    3.5546 H   0  0  0  0  0  0  0  0  0  0  0  0
    3.9446    1.9538    2.9814 H   0  0  0  0  0  0  0  0  0  0  0  0
    3.2597    1.7911    1.3692 H   0  0  0  0  0  0  0  0  0  0  0  0
    2.3522    1.2047    2.7774 H   0  0  0  0  0  0  0  0  0  0  0  0
  1  2  1  0
  2  3  1  0
  2  4  1  0
  4  5  1  0
  4  6  1  0
  6  7  2  0
  6  8  1  0
  8  9  1  0
  9 10  1  0
 10 11  2  0
 10 12  1  0
 12 13  1  0
 13 14  1  0
 14 15  1  0
 13 16  1  0
 16 17  2  0
 16 18  1  0
 18 19  1  0
 19 20  1  0
 20 21  2  0
 20 22  1  0
 22 23  1  0
 23 24  1  0
 24 25  1  0
 25 26  2  0
 26 27  1  0
 27 28  2  0
 28 29  1  0
 28 30  1  0
 30 31  2  0
 23 32  1  0
 32 33  2  0
 32 34  1  0
 19 35  1  0
 35 36  1  0
 35 37  1  0
  9 38  1  0
 38 39  1  0
 38 40  1  0
 31 25  1  0
  1 41  1  0
  1 42  1  0
  1 43  1  0
  2 44  1  0
  3 45  1  0
  3 46  1  0
  3 47  1  0
  4 48  1  6
  5 49  1  0
  5 50  1  0
  8 51  1  0
  9 52  1  1
 12 53  1  0
 13 54  1  6
 14 55  1  0
 14 56  1  0
 15 57  1  0
 18 58  1  0
 19 59  1  1
 22 60  1  0
 23 61  1  6
 24 62  1  0
 24 63  1  0
 26 64  1  0
 27 65  1  0
 29 66  1  0
 30 67  1  0
 31 68  1  0
 34 69  1  0
 35 70  1  6
 36 71  1  0
 36 72  1  0
 36 73  1  0
 37 74  1  0
 38 75  1  0
 39 76  1  0
 39 77  1  0
 39 78  1  0
 40 79  1  0
 40 80  1  0
 40 81  1  0
M  END
$$$$
VVCTY.sdf
     RDKit          3D

 81 81  0  0  0  0  0  0  0  0999 V2000
    6.8541   -5.2419    0.3622 C   0  0  0  0  0  0  0  0  0  0  0  0
    5.3769   -4.8375    0.2906 C   0  0  0  0  0  0  0  0  0  0  0  0
    4.5067   -6.0179    0.7405 C   0  0  0  0  0  0  0  0  0  0  0  0
    5.1225   -3.5295    1.0777 C   0  0  2  0  0  0  0  0  0  0  0  0
    5.2449   -3.7050    2.5433 N   0  0  0  0  0  0  0  0  0  0  0  0
    3.7557   -2.8761    0.7439 C   0  0  0  0  0  0  0  0  0  0  0  0
    2.9336   -3.3527   -0.0307 O   0  0  0  0  0  0  0  0  0  0  0  0
    3.5519   -1.6837    1.4237 N   0  0  0  0  0  0  0  0  0  0  0  0
    2.4357   -0.8113    1.0620 C   0  0  2  0  0  0  0  0  0  0  0  0
    2.9760    0.2642    0.0923 C   0  0  0  0  0  0  0  0  0  0  0  0
    4.1740    0.5329    0.0052 O   0  0  0  0  0  0  0  0  0  0  0  0
    2.0104    0.9248   -0.6272 N   0  0  0  0  0  0  0  0  0  0  0  0
    2.3298    2.0652   -1.4964 C   0  0  1  0  0  0  0  0  0  0  0  0
    3.1694    1.7127   -2.7345 C   0  0  0  0  0  0  0  0  0  0  0  0
    2.5638    0.2866   -3.7118 S   0  0  0  0  0  0  0  0  0  0  0  0
    1.0019    2.7444   -1.8689 C   0  0  0  0  0  0  0  0  0  0  0  0
    0.7826    3.9337   -1.6620 O   0  0  0  0  0  0  0  0  0  0  0  0
    0.0698    1.8883   -2.4264 N   0  0  0  0  0  0  0  0  0  0  0  0
   -1.3492    2.1192   -2.1765 C   0  0  2  0  0  0  0  0  0  0  0  0
   -1.6564    1.4961   -0.7939 C   0  0  0  0  0  0  0  0  0  0  0  0
   -0.8790    0.7231   -0.2280 O   0  0  0  0  0  0  0  0  0  0  0  0
   -2.8765    1.8589   -0.2655 N   0  0  0  0  0  0  0  0  0  0  0  0
   -3.5006    1.0632    0.7944 C   0  0  1  0  0  0  0  0  0  0  0  0
   -4.3733    1.9110    1.7307 C   0  0  0  0  0  0  0  0  0  0  0  0
   -5.5096    2.6459    1.0541 C   0  0  0  0  0  0  0  0  0  0  0  0
   -6.7774    2.0554    0.9445 C   0  0  0  0  0  0  0  0  0  0  0  0
   -7.8201    2.7267    0.3015 C   0  0  0  0  0  0  0  0  0  0  0  0
   -7.5948    3.9917   -0.2303 C   0  0  0  0  0  0  0  0  0  0  0  0
   -8.5834    4.6826   -0.8654 O   0  0  0  0  0  0  0  0  0  0  0  0
   -6.3481    4.5948   -0.1267 C   0  0  0  0  0  0  0  0  0  0  0  0
   -5.3065    3.9251    0.5160 C   0  0  0  0  0  0  0  0  0  0  0  0
   -4.2988   -0.0608    0.1261 C   0  0  0  0  0  0  0  0  0  0  0  0
   -4.4892   -0.1982   -1.0761 O   0  0  0  0  0  0  0  0  0  0  0  0
   -4.7900   -0.9603    1.0020 O   0  0  0  0  0  0  0  0  0  0  0  0
   -2.2618    1.5134   -3.2662 C   0  0  1  0  0  0  0  0  0  0  0  0
   -2.0596    0.0181   -3.5075 C   0  0  0  0  0  0  0  0  0  0  0  0
   -3.6398    1.7759   -2.9635 O   0  0  0  0  0  0  0  0  0  0  0  0
    1.7679   -0.1680    2.2982 C   0  0  0  0  0  0  0  0  0  0  0  0
    1.0359   -1.2257    3.1298 C   0  0  0  0  0  0  0  0  0  0  0  0
    2.7489    0.6051    3.1856 C   0  0  0  0  0  0  0  0  0  0  0  0
    7.1586   -5.4825    1.3862 H   0  0  0  0  0  0  0  0  0  0  0  0
    7.0440   -6.1233   -0.2599 H   0  0  0  0  0  0  0  0  0  0  0  0
    7.4969   -4.4342   -0.0035 H   0  0  0  0  0  0  0  0  0  0  0  0
    5.1432   -4.6460   -0.7654 H   0  0  0  0  0  0  0  0  0  0  0  0
    4.6472   -6.8705    0.0667 H   0  0  0  0  0  0  0  0  0  0  0  0
    4.7669   -6.3544    1.7495 H   0  0  0  0  0  0  0  0  0  0  0  0
    3.4427   -5.7652    0.7303 H   0  0  0  0  0  0  0  0  0  0  0  0
    5.8806   -2.7971    0.7690 H   0  0  0  0  0  0  0  0  0  0  0  0
    4.9788   -2.8340    3.0022 H   0  0  0  0  0  0  0  0  0  0  0  0
    4.5430   -4.3817    2.8459 H   0  0  0  0  0  0  0  0  0  0  0  0
    4.4044   -1.1884    1.6667 H   0  0  0  0  0  0  0  0  0  0  0  0
    1.6859   -1.3925    0.5110 H   0  0  0  0  0  0  0  0  0  0  0  0
    1.0316    0.7687   -0.3741 H   0  0  0  0  0  0  0  0  0  0  0  0
    2.8931    2.7820   -0.8853 H   0  0  0  0  0  0  0  0  0  0  0  0
    4.1926    1.4693   -2.4311 H   0  0  0  0  0  0  0  0  0  0  0  0
    3.2280    2.5747   -3.4077 H   0  0  0  0  0  0  0  0  0  0  0  0
    3.6359    0.1898   -4.5125 H   0  0  0  0  0  0  0  0  0  0  0  0
    0.3624    0.9138   -2.4550 H   0  0  0  0  0  0  0  0  0  0  0  0
   -1.5391    3.1965   -2.0925 H   0  0  0  0  0  0  0  0  0  0  0  0
   -3.5223    2.2833   -0.9341 H   0  0  0  0  0  0  0  0  0  0  0  0
   -2.7053    0.5860    1.3795 H   0  0  0  0  0  0  0  0  0  0  0  0
   -3.7403    2.6488    2.2418 H   0  0  0  0  0  0  0  0  0  0  0  0
   -4.7880    1.2798    2.5275 H   0  0  0  0  0  0  0  0  0  0  0  0
   -6.9654    1.0692    1.3640 H   0  0  0  0  0  0  0  0  0  0  0  0
   -8.7933    2.2518    0.2284 H   0  0  0  0  0  0  0  0  0  0  0  0
   -9.3877    4.1388   -0.8731 H   0  0  0  0  0  0  0  0  0  0  0  0
   -6.1873    5.5847   -0.5447 H   0  0  0  0  0  0  0  0  0  0  0  0
   -4.3360    4.4115    0.5932 H   0  0  0  0  0  0  0  0  0  0  0  0
   -5.2304   -1.6356    0.4429 H   0  0  0  0  0  0  0  0  0  0  0  0
   -2.0524    2.0328   -4.2089 H   0  0  0  0  0  0  0  0  0  0  0  0
   -1.0515   -0.1996   -3.8715 H   0  0  0  0  0  0  0  0  0  0  0  0
   -2.7766   -0.3445   -4.2524 H   0  0  0  0  0  0  0  0  0  0  0  0
   -2.2335   -0.5645   -2.5976 H   0  0  0  0  0  0  0  0  0  0  0  0
   -4.0536    0.9457   -2.6397 H   0  0  0  0  0  0  0  0  0  0  0  0
    1.0132    0.5497    1.9521 H   0  0  0  0  0  0  0  0  0  0  0  0
    1.7304   -1.9617    3.5485 H   0  0  0  0  0  0  0  0  0  0  0  0
    0.4991   -0.7591    3.9628 H   0  0  0  0  0  0  0  0  0  0  0  0
    0.3007   -1.7599    2.5187 H   0  0  0  0  0  0  0  0  0  0  0  0
    2.2168    1.0881    4.0125 H   0  0  0  0  0  0  0  0  0  0  0  0
    3.5081   -0.0525    3.6214 H   0  0  0  0  0  0  0  0  0  0  0  0
    3.2597    1.3918    2.6219 H   0  0  0  0  0  0  0  0  0  0  0  0
  1  2  1  0
  2  3  1  0
  2  4  1  0
  4  5  1  0
  4  6  1  0
  6  7  2  0
  6  8  1  0
  8  9  1  0
  9 10  1  0
 10 11  2  0
 10 12  1  0
 12 13  1  0
 13 14  1  0
 14 15  1  0
 13 16  1  0
 16 17  2  0
 16 18  1  0
 18 19  1  0
 19 20  1  0
 20 21  2  0
 20 22  1  0
 22 23  1  0
 23 24  1  0
 24 25  1  0
 25 26  2  0
 26 27  1  0
 27 28  2  0
 28 29  1  0
 28 30  1  0
 30 31  2  0
 23 32  1  0
 32 33  2  0
 32 34  1  0
 19 35  1  0
 35 36  1  0
 35 37  1  0
  9 38  1  0
 38 39  1  0
 38 40  1  0
 31 25  1  0
  1 41  1  0
  1 42  1  0
  1 43  1  0
  2 44  1  0
  3 45  1  0
  3 46  1  0
  3 47  1  0
  4 48  1  6
  5 49  1  0
  5 50  1  0
  8 51  1  0
  9 52  1  6
 12 53  1  0
 13 54  1  1
 14 55  1  0
 14 56  1  0
 15 57  1  0
 18 58  1  0
 19 59  1  1
 22 60  1  0
 23 61  1  1
 24 62  1  0
 24 63  1  0
 26 64  1  0
 27 65  1  0
 29 66  1  0
 30 67  1  0
 31 68  1  0
 34 69  1  0
 35 70  1  6
 36 71  1  0
 36 72  1  0
 36 73  1  0
 37 74  1  0
 38 75  1  0
 39 76  1  0
 39 77  1  0
 39 78  1  0
 40 79  1  0
 40 80  1  0
 40 81  1  0
M  END
$$$$
VVCTY.sdf
     RDKit          3D

 81 81  0  0  0  0  0  0  0  0999 V2000
    7.6675   -5.4731    1.4726 C   0  0  0  0  0  0  0  0  0  0  0  0
    7.7198   -4.0775    0.8403 C   0  0  0  0  0  0  0  0  0  0  0  0
    7.7873   -3.0188    1.9458 C   0  0  0  0  0  0  0  0  0  0  0  0
    6.5698   -3.8809   -0.1749 C   0  0  2  0  0  0  0  0  0  0  0  0
    6.7481   -2.6374   -0.9607 N   0  0  0  0  0  0  0  0  0  0  0  0
    5.1649   -3.9275    0.4757 C   0  0  0  0  0  0  0  0  0  0  0  0
    4.5402   -4.9769    0.6110 O   0  0  0  0  0  0  0  0  0  0  0  0
    4.6893   -2.7114    0.9270 N   0  0  0  0  0  0  0  0  0  0  0  0
    3.2791   -2.5605    1.2738 C   0  0  2  0  0  0  0  0  0  0  0  0
    2.5516   -2.0660    0.0021 C   0  0  0  0  0  0  0  0  0  0  0  0
    3.1518   -1.5265   -0.9284 O   0  0  0  0  0  0  0  0  0  0  0  0
    1.1836   -2.2420    0.0111 N   0  0  0  0  0  0  0  0  0  0  0  0
    0.3513   -1.5604   -0.9845 C   0  0  1  0  0  0  0  0  0  0  0  0
   -0.9180   -2.3524   -1.3133 C   0  0  0  0  0  0  0  0  0  0  0  0
   -0.5387   -3.9172   -2.1678 S   0  0  0  0  0  0  0  0  0  0  0  0
   -0.0642   -0.2092   -0.3738 C   0  0  0  0  0  0  0  0  0  0  0  0
   -0.1327   -0.0376    0.8430 O   0  0  0  0  0  0  0  0  0  0  0  0
   -0.3921    0.7656   -1.2931 N   0  0  0  0  0  0  0  0  0  0  0  0
   -1.0890    1.9788   -0.8635 C   0  0  2  0  0  0  0  0  0  0  0  0
   -2.6041    1.7354   -1.0143 C   0  0  0  0  0  0  0  0  0  0  0  0
   -3.0629    0.8243   -1.7016 O   0  0  0  0  0  0  0  0  0  0  0  0
   -3.3906    2.6689   -0.3695 N   0  0  0  0  0  0  0  0  0  0  0  0
   -4.8017    2.8356   -0.7414 C   0  0  1  0  0  0  0  0  0  0  0  0
   -5.5741    3.4878    0.4103 C   0  0  0  0  0  0  0  0  0  0  0  0
   -7.0699    3.5199    0.2090 C   0  0  0  0  0  0  0  0  0  0  0  0
   -7.7280    4.7326   -0.0405 C   0  0  0  0  0  0  0  0  0  0  0  0
   -9.1096    4.7585   -0.2354 C   0  0  0  0  0  0  0  0  0  0  0  0
   -9.8361    3.5759   -0.1801 C   0  0  0  0  0  0  0  0  0  0  0  0
  -11.1831    3.6483   -0.3778 O   0  0  0  0  0  0  0  0  0  0  0  0
   -9.2040    2.3630    0.0702 C   0  0  0  0  0  0  0  0  0  0  0  0
   -7.8212    2.3363    0.2659 C   0  0  0  0  0  0  0  0  0  0  0  0
   -4.8087    3.7400   -1.9776 C   0  0  0  0  0  0  0  0  0  0  0  0
   -3.9567    4.5773   -2.2539 O   0  0  0  0  0  0  0  0  0  0  0  0
   -5.8656    3.5417   -2.7858 O   0  0  0  0  0  0  0  0  0  0  0  0
   -0.6628    3.2325   -1.6632 C   0  0  1  0  0  0  0  0  0  0  0  0
   -0.8864    3.1305   -3.1711 C   0  0  0  0  0  0  0  0  0  0  0  0
   -1.3240    4.3978   -1.1456 O   0  0  0  0  0  0  0  0  0  0  0  0
    3.0601   -1.5952    2.4598 C   0  0  0  0  0  0  0  0  0  0  0  0
    3.6540   -0.2016    2.2291 C   0  0  0  0  0  0  0  0  0  0  0  0
    3.6196   -2.1910    3.7551 C   0  0  0  0  0  0  0  0  0  0  0  0
    6.7912   -5.5937    2.1176 H   0  0  0  0  0  0  0  0  0  0  0  0
    7.6357   -6.2504    0.7019 H   0  0  0  0  0  0  0  0  0  0  0  0
    8.5577   -5.6512    2.0858 H   0  0  0  0  0  0  0  0  0  0  0  0
    8.6641   -4.0207    0.2808 H   0  0  0  0  0  0  0  0  0  0  0  0
    8.6662   -3.1865    2.5787 H   0  0  0  0  0  0  0  0  0  0  0  0
    7.8735   -2.0079    1.5377 H   0  0  0  0  0  0  0  0  0  0  0  0
    6.9075   -3.0548    2.5954 H   0  0  0  0  0  0  0  0  0  0  0  0
    6.5937   -4.7014   -0.9032 H   0  0  0  0  0  0  0  0  0  0  0  0
    5.9177   -2.4714   -1.5330 H   0  0  0  0  0  0  0  0  0  0  0  0
    6.8916   -1.8310   -0.3619 H   0  0  0  0  0  0  0  0  0  0  0  0
    5.0906   -1.9101    0.4570 H   0  0  0  0  0  0  0  0  0  0  0  0
    2.8599   -3.5425    1.5258 H   0  0  0  0  0  0  0  0  0  0  0  0
    0.7519   -2.3650    0.9213 H   0  0  0  0  0  0  0  0  0  0  0  0
    0.9367   -1.3659   -1.8911 H   0  0  0  0  0  0  0  0  0  0  0  0
   -1.4720   -2.5922   -0.3986 H   0  0  0  0  0  0  0  0  0  0  0  0
   -1.5876   -1.7739   -1.9579 H   0  0  0  0  0  0  0  0  0  0  0  0
    0.3807   -4.3488   -1.2888 H   0  0  0  0  0  0  0  0  0  0  0  0
   -0.6199    0.4457   -2.2287 H   0  0  0  0  0  0  0  0  0  0  0  0
   -0.8980    2.1545    0.2025 H   0  0  0  0  0  0  0  0  0  0  0  0
   -2.8976    3.5220   -0.1026 H   0  0  0  0  0  0  0  0  0  0  0  0
   -5.2080    1.8555   -1.0143 H   0  0  0  0  0  0  0  0  0  0  0  0
   -5.3721    2.9465    1.3447 H   0  0  0  0  0  0  0  0  0  0  0  0
   -5.2028    4.5077    0.5804 H   0  0  0  0  0  0  0  0  0  0  0  0
   -7.1739    5.6675   -0.0857 H   0  0  0  0  0  0  0  0  0  0  0  0
   -9.6182    5.6987   -0.4289 H   0  0  0  0  0  0  0  0  0  0  0  0
  -11.5540    2.7534   -0.3088 H   0  0  0  0  0  0  0  0  0  0  0  0
   -9.7645    1.4347    0.1167 H   0  0  0  0  0  0  0  0  0  0  0  0
   -7.3343    1.3834    0.4641 H   0  0  0  0  0  0  0  0  0  0  0  0
   -5.7620    4.1760   -3.5245 H   0  0  0  0  0  0  0  0  0  0  0  0
    0.4090    3.3919   -1.4954 H   0  0  0  0  0  0  0  0  0  0  0  0
   -0.5796    4.0614   -3.6608 H   0  0  0  0  0  0  0  0  0  0  0  0
   -0.3129    2.3089   -3.6096 H   0  0  0  0  0  0  0  0  0  0  0  0
   -1.9437    2.9863   -3.4137 H   0  0  0  0  0  0  0  0  0  0  0  0
   -2.0007    4.6922   -1.7940 H   0  0  0  0  0  0  0  0  0  0  0  0
    1.9800   -1.4649    2.6051 H   0  0  0  0  0  0  0  0  0  0  0  0
    4.7433   -0.2362    2.1241 H   0  0  0  0  0  0  0  0  0  0  0  0
    3.4246    0.4561    3.0748 H   0  0  0  0  0  0  0  0  0  0  0  0
    3.2374    0.2650    1.3311 H   0  0  0  0  0  0  0  0  0  0  0  0
    4.7074   -2.3062    3.7099 H   0  0  0  0  0  0  0  0  0  0  0  0
    3.1806   -3.1746    3.9523 H   0  0  0  0  0  0  0  0  0  0  0  0
    3.3867   -1.5459    4.6091 H   0  0  0  0  0  0  0  0  0  0  0  0
  1  2  1  0
  2  3  1  0
  2  4  1  0
  4  5  1  0
  4  6  1  0
  6  7  2  0
  6  8  1  0
  8  9  1  0
  9 10  1  0
 10 11  2  0
 10 12  1  0
 12 13  1  0
 13 14  1  0
 14 15  1  0
 13 16  1  0
 16 17  2  0
 16 18  1  0
 18 19  1  0
 19 20  1  0
 20 21  2  0
 20 22  1  0
 22 23  1  0
 23 24  1  0
 24 25  1  0
 25 26  2  0
 26 27  1  0
 27 28  2  0
 28 29  1  0
 28 30  1  0
 30 31  2  0
 23 32  1  0
 32 33  2  0
 32 34  1  0
 19 35  1  0
 35 36  1  0
 35 37  1  0
  9 38  1  0
 38 39  1  0
 38 40  1  0
 31 25  1  0
  1 41  1  0
  1 42  1  0
  1 43  1  0
  2 44  1  0
  3 45  1  0
  3 46  1  0
  3 47  1  0
  4 48  1  6
  5 49  1  0
  5 50  1  0
  8 51  1  0
  9 52  1  1
 12 53  1  0
 13 54  1  6
 14 55  1  0
 14 56  1  0
 15 57  1  0
 18 58  1  0
 19 59  1  1
 22 60  1  0
 23 61  1  6
 24 62  1  0
 24 63  1  0
 26 64  1  0
 27 65  1  0
 29 66  1  0
 30 67  1  0
 31 68  1  0
 34 69  1  0
 35 70  1  6
 36 71  1  0
 36 72  1  0
 36 73  1  0
 37 74  1  0
 38 75  1  0
 39 76  1  0
 39 77  1  0
 39 78  1  0
 40 79  1  0
 40 80  1  0
 40 81  1  0
M  END
$$$$
VVCTY.sdf
     RDKit          3D

 81 81  0  0  0  0  0  0  0  0999 V2000
    8.1731   -2.9910   -0.4754 C   0  0  0  0  0  0  0  0  0  0  0  0
    6.6912   -3.2138   -0.1547 C   0  0  0  0  0  0  0  0  0  0  0  0
    6.0645   -4.1302   -1.2118 C   0  0  0  0  0  0  0  0  0  0  0  0
    6.5006   -3.7258    1.2935 C   0  0  2  0  0  0  0  0  0  0  0  0
    7.1167   -5.0522    1.5161 N   0  0  0  0  0  0  0  0  0  0  0  0
    5.0033   -3.7794    1.6917 C   0  0  0  0  0  0  0  0  0  0  0  0
    4.4035   -4.8402    1.8581 O   0  0  0  0  0  0  0  0  0  0  0  0
    4.4159   -2.5453    1.8726 N   0  0  0  0  0  0  0  0  0  0  0  0
    2.9624   -2.4176    1.9665 C   0  0  2  0  0  0  0  0  0  0  0  0
    2.4492   -1.9698    0.5789 C   0  0  0  0  0  0  0  0  0  0  0  0
    3.1927   -1.4668   -0.2646 O   0  0  0  0  0  0  0  0  0  0  0  0
    1.0966   -2.1376    0.3779 N   0  0  0  0  0  0  0  0  0  0  0  0
    0.4394   -1.5129   -0.7702 C   0  0  1  0  0  0  0  0  0  0  0  0
   -0.8130   -2.2742   -1.2219 C   0  0  0  0  0  0  0  0  0  0  0  0
   -0.4514   -3.9879   -1.7355 S   0  0  0  0  0  0  0  0  0  0  0  0
    0.0126   -0.0974   -0.3394 C   0  0  0  0  0  0  0  0  0  0  0  0
   -0.1826    0.2062    0.8380 O   0  0  0  0  0  0  0  0  0  0  0  0
   -0.1800    0.7872   -1.3744 N   0  0  0  0  0  0  0  0  0  0  0  0
   -0.8852    2.0482   -1.1582 C   0  0  2  0  0  0  0  0  0  0  0  0
   -2.4030    1.7624   -1.2263 C   0  0  0  0  0  0  0  0  0  0  0  0
   -2.8667    0.7290   -1.7076 O   0  0  0  0  0  0  0  0  0  0  0  0
   -3.2036    2.7605   -0.7038 N   0  0  0  0  0  0  0  0  0  0  0  0
   -4.6586    2.7443   -0.9237 C   0  0  1  0  0  0  0  0  0  0  0  0
   -5.3773    3.4039    0.2586 C   0  0  0  0  0  0  0  0  0  0  0  0
   -6.8816    3.2904    0.2027 C   0  0  0  0  0  0  0  0  0  0  0  0
   -7.6714    4.4125   -0.0892 C   0  0  0  0  0  0  0  0  0  0  0  0
   -9.0630    4.3049   -0.1471 C   0  0  0  0  0  0  0  0  0  0  0  0
   -9.6647    3.0732    0.0870 C   0  0  0  0  0  0  0  0  0  0  0  0
  -11.0190    2.9233    0.0412 O   0  0  0  0  0  0  0  0  0  0  0  0
   -8.8989    1.9515    0.3776 C   0  0  0  0  0  0  0  0  0  0  0  0
   -7.5088    2.0583    0.4366 C   0  0  0  0  0  0  0  0  0  0  0  0
   -4.9049    3.5413   -2.2027 C   0  0  0  0  0  0  0  0  0  0  0  0
   -4.2861    4.5414   -2.5446 O   0  0  0  0  0  0  0  0  0  0  0  0
   -5.9042    3.0563   -2.9613 O   0  0  0  0  0  0  0  0  0  0  0  0
   -0.4923    3.0893   -2.2267 C   0  0  1  0  0  0  0  0  0  0  0  0
    0.9089    3.6396   -1.9815 C   0  0  0  0  0  0  0  0  0  0  0  0
   -0.5184    2.4849   -3.5272 O   0  0  0  0  0  0  0  0  0  0  0  0
    2.5291   -1.4320    3.0750 C   0  0  0  0  0  0  0  0  0  0  0  0
    2.8850   -1.9814    4.4598 C   0  0  0  0  0  0  0  0  0  0  0  0
    3.1185   -0.0278    2.9046 C   0  0  0  0  0  0  0  0  0  0  0  0
    8.6314   -2.3155    0.2546 H   0  0  0  0  0  0  0  0  0  0  0  0
    8.7355   -3.9305   -0.4721 H   0  0  0  0  0  0  0  0  0  0  0  0
    8.2888   -2.5371   -1.4657 H   0  0  0  0  0  0  0  0  0  0  0  0
    6.1956   -2.2388   -0.2449 H   0  0  0  0  0  0  0  0  0  0  0  0
    6.1650   -3.6868   -2.2087 H   0  0  0  0  0  0  0  0  0  0  0  0
    4.9958   -4.2779   -1.0270 H   0  0  0  0  0  0  0  0  0  0  0  0
    6.5473   -5.1123   -1.2384 H   0  0  0  0  0  0  0  0  0  0  0  0
    6.9871   -3.0257    1.9849 H   0  0  0  0  0  0  0  0  0  0  0  0
    6.9480   -5.3109    2.4909 H   0  0  0  0  0  0  0  0  0  0  0  0
    6.5564   -5.7364    0.9993 H   0  0  0  0  0  0  0  0  0  0  0  0
    4.8771   -1.7590    1.4281 H   0  0  0  0  0  0  0  0  0  0  0  0
    2.5227   -3.4022    2.1679 H   0  0  0  0  0  0  0  0  0  0  0  0
    0.5170   -2.2727    1.1983 H   0  0  0  0  0  0  0  0  0  0  0  0
    1.1541   -1.4235   -1.5974 H   0  0  0  0  0  0  0  0  0  0  0  0
   -1.5526   -2.3175   -0.4144 H   0  0  0  0  0  0  0  0  0  0  0  0
   -1.2868   -1.7662   -2.0685 H   0  0  0  0  0  0  0  0  0  0  0  0
    0.4989   -3.6897   -2.6341 H   0  0  0  0  0  0  0  0  0  0  0  0
   -0.2562    0.4340   -2.3233 H   0  0  0  0  0  0  0  0  0  0  0  0
   -0.6650    2.4246   -0.1518 H   0  0  0  0  0  0  0  0  0  0  0  0
   -2.7903    3.6758   -0.5714 H   0  0  0  0  0  0  0  0  0  0  0  0
   -4.9861    1.7100   -1.0749 H   0  0  0  0  0  0  0  0  0  0  0  0
   -5.0909    4.4621    0.3312 H   0  0  0  0  0  0  0  0  0  0  0  0
   -5.0374    2.9480    1.1986 H   0  0  0  0  0  0  0  0  0  0  0  0
   -7.2098    5.3803   -0.2735 H   0  0  0  0  0  0  0  0  0  0  0  0
   -9.6551    5.1858   -0.3738 H   0  0  0  0  0  0  0  0  0  0  0  0
  -11.4196    3.7830   -0.1660 H   0  0  0  0  0  0  0  0  0  0  0  0
   -9.3823    0.9955    0.5580 H   0  0  0  0  0  0  0  0  0  0  0  0
   -6.9217    1.1715    0.6669 H   0  0  0  0  0  0  0  0  0  0  0  0
   -5.9457    3.6417   -3.7448 H   0  0  0  0  0  0  0  0  0  0  0  0
   -1.2051    3.9210   -2.2363 H   0  0  0  0  0  0  0  0  0  0  0  0
    1.6643    2.8494   -2.0519 H   0  0  0  0  0  0  0  0  0  0  0  0
    1.1647    4.3836   -2.7438 H   0  0  0  0  0  0  0  0  0  0  0  0
    0.9832    4.1127   -0.9977 H   0  0  0  0  0  0  0  0  0  0  0  0
   -0.2985    3.1760   -4.1775 H   0  0  0  0  0  0  0  0  0  0  0  0
    1.4369   -1.3290    3.0399 H   0  0  0  0  0  0  0  0  0  0  0  0
    2.4423   -2.9716    4.6107 H   0  0  0  0  0  0  0  0  0  0  0  0
    3.9684   -2.0684    4.5939 H   0  0  0  0  0  0  0  0  0  0  0  0
    2.5021   -1.3228    5.2468 H   0  0  0  0  0  0  0  0  0  0  0  0
    2.7390    0.6428    3.6834 H   0  0  0  0  0  0  0  0  0  0  0  0
    2.8424    0.4054    1.9383 H   0  0  0  0  0  0  0  0  0  0  0  0
    4.2108   -0.0340    2.9779 H   0  0  0  0  0  0  0  0  0  0  0  0
  1  2  1  0
  2  3  1  0
  2  4  1  0
  4  5  1  0
  4  6  1  0
  6  7  2  0
  6  8  1  0
  8  9  1  0
  9 10  1  0
 10 11  2  0
 10 12  1  0
 12 13  1  0
 13 14  1  0
 14 15  1  0
 13 16  1  0
 16 17  2  0
 16 18  1  0
 18 19  1  0
 19 20  1  0
 20 21  2  0
 20 22  1  0
 22 23  1  0
 23 24  1  0
 24 25  1  0
 25 26  2  0
 26 27  1  0
 27 28  2  0
 28 29  1  0
 28 30  1  0
 30 31  2  0
 23 32  1  0
 32 33  2  0
 32 34  1  0
 19 35  1  0
 35 36  1  0
 35 37  1  0
  9 38  1  0
 38 39  1  0
 38 40  1  0
 31 25  1  0
  1 41  1  0
  1 42  1  0
  1 43  1  0
  2 44  1  0
  3 45  1  0
  3 46  1  0
  3 47  1  0
  4 48  1  1
  5 49  1  0
  5 50  1  0
  8 51  1  0
  9 52  1  1
 12 53  1  0
 13 54  1  6
 14 55  1  0
 14 56  1  0
 15 57  1  0
 18 58  1  0
 19 59  1  1
 22 60  1  0
 23 61  1  6
 24 62  1  0
 24 63  1  0
 26 64  1  0
 27 65  1  0
 29 66  1  0
 30 67  1  0
 31 68  1  0
 34 69  1  0
 35 70  1  6
 36 71  1  0
 36 72  1  0
 36 73  1  0
 37 74  1  0
 38 75  1  0
 39 76  1  0
 39 77  1  0
 39 78  1  0
 40 79  1  0
 40 80  1  0
 40 81  1  0
M  END
$$$$
VVCTY.sdf
     RDKit          3D

 81 81  0  0  0  0  0  0  0  0999 V2000
    5.2864   -6.2715   -1.2459 C   0  0  0  0  0  0  0  0  0  0  0  0
    4.5847   -5.0910   -0.5663 C   0  0  0  0  0  0  0  0  0  0  0  0
    3.0682   -5.2144   -0.7486 C   0  0  0  0  0  0  0  0  0  0  0  0
    5.0140   -4.9498    0.9151 C   0  0  2  0  0  0  0  0  0  0  0  0
    4.5375   -6.0281    1.7990 N   0  0  0  0  0  0  0  0  0  0  0  0
    4.5563   -3.5843    1.4848 C   0  0  0  0  0  0  0  0  0  0  0  0
    3.5280   -3.4460    2.1478 O   0  0  0  0  0  0  0  0  0  0  0  0
    5.3713   -2.5210    1.1452 N   0  0  0  0  0  0  0  0  0  0  0  0
    4.9385   -1.1606    1.4575 C   0  0  2  0  0  0  0  0  0  0  0  0
    3.8935   -0.8125    0.3774 C   0  0  0  0  0  0  0  0  0  0  0  0
    4.0687   -1.0499   -0.8175 O   0  0  0  0  0  0  0  0  0  0  0  0
    2.7459   -0.2323    0.8570 N   0  0  0  0  0  0  0  0  0  0  0  0
    1.5861    0.0070    0.0040 C   0  0  1  0  0  0  0  0  0  0  0  0
    0.8518   -1.2878   -0.3816 C   0  0  0  0  0  0  0  0  0  0  0  0
    0.2765   -2.2724    1.0460 S   0  0  0  0  0  0  0  0  0  0  0  0
    0.6580    1.0119    0.7123 C   0  0  0  0  0  0  0  0  0  0  0  0
    0.8484    1.3926    1.8685 O   0  0  0  0  0  0  0  0  0  0  0  0
   -0.3880    1.4843   -0.0375 N   0  0  0  0  0  0  0  0  0  0  0  0
   -1.3968    2.4225    0.4839 C   0  0  2  0  0  0  0  0  0  0  0  0
   -2.5362    2.4005   -0.5482 C   0  0  0  0  0  0  0  0  0  0  0  0
   -2.3149    2.2364   -1.7479 O   0  0  0  0  0  0  0  0  0  0  0  0
   -3.8034    2.5467   -0.0302 N   0  0  0  0  0  0  0  0  0  0  0  0
   -4.9778    2.6786   -0.9070 C   0  0  1  0  0  0  0  0  0  0  0  0
   -6.1949    2.0042   -0.2623 C   0  0  0  0  0  0  0  0  0  0  0  0
   -7.4057    1.9470   -1.1623 C   0  0  0  0  0  0  0  0  0  0  0  0
   -7.4470    1.0535   -2.2429 C   0  0  0  0  0  0  0  0  0  0  0  0
   -8.5602    1.0102   -3.0855 C   0  0  0  0  0  0  0  0  0  0  0  0
   -9.6331    1.8617   -2.8458 C   0  0  0  0  0  0  0  0  0  0  0  0
  -10.7390    1.8539   -3.6432 O   0  0  0  0  0  0  0  0  0  0  0  0
   -9.6106    2.7517   -1.7796 C   0  0  0  0  0  0  0  0  0  0  0  0
   -8.4988    2.7959   -0.9374 C   0  0  0  0  0  0  0  0  0  0  0  0
   -5.2426    4.1705   -1.0871 C   0  0  0  0  0  0  0  0  0  0  0  0
   -5.1608    5.0179   -0.2087 O   0  0  0  0  0  0  0  0  0  0  0  0
   -5.5996    4.5096   -2.3395 O   0  0  0  0  0  0  0  0  0  0  0  0
   -0.7978    3.8311    0.7109 C   0  0  1  0  0  0  0  0  0  0  0  0
   -1.8029    4.9752    0.6831 C   0  0  0  0  0  0  0  0  0  0  0  0
   -0.1696    3.8946    2.0008 O   0  0  0  0  0  0  0  0  0  0  0  0
    6.1168   -0.1654    1.4307 C   0  0  0  0  0  0  0  0  0  0  0  0
    7.2061   -0.5710    2.4307 C   0  0  0  0  0  0  0  0  0  0  0  0
    5.6567    1.2625    1.7442 C   0  0  0  0  0  0  0  0  0  0  0  0
    6.3734   -6.1904   -1.1412 H   0  0  0  0  0  0  0  0  0  0  0  0
    5.0578   -6.2887   -2.3172 H   0  0  0  0  0  0  0  0  0  0  0  0
    4.9733   -7.2322   -0.8254 H   0  0  0  0  0  0  0  0  0  0  0  0
    4.8963   -4.1835   -1.1005 H   0  0  0  0  0  0  0  0  0  0  0  0
    2.5468   -4.3552   -0.3177 H   0  0  0  0  0  0  0  0  0  0  0  0
    2.6742   -6.1233   -0.2826 H   0  0  0  0  0  0  0  0  0  0  0  0
    2.8123   -5.2509   -1.8132 H   0  0  0  0  0  0  0  0  0  0  0  0
    6.1102   -4.9636    0.9650 H   0  0  0  0  0  0  0  0  0  0  0  0
    3.6034   -5.7717    2.1331 H   0  0  0  0  0  0  0  0  0  0  0  0
    4.4284   -6.8963    1.2821 H   0  0  0  0  0  0  0  0  0  0  0  0
    5.9264   -2.6284    0.3043 H   0  0  0  0  0  0  0  0  0  0  0  0
    4.4650   -1.1631    2.4469 H   0  0  0  0  0  0  0  0  0  0  0  0
    2.5832   -0.1818    1.8597 H   0  0  0  0  0  0  0  0  0  0  0  0
    1.9501    0.4911   -0.9113 H   0  0  0  0  0  0  0  0  0  0  0  0
   -0.0245   -1.0635   -0.9981 H   0  0  0  0  0  0  0  0  0  0  0  0
    1.5075   -1.9336   -0.9746 H   0  0  0  0  0  0  0  0  0  0  0  0
    1.4966   -2.6144    1.5045 H   0  0  0  0  0  0  0  0  0  0  0  0
   -0.4507    1.2746   -1.0313 H   0  0  0  0  0  0  0  0  0  0  0  0
   -1.7563    2.0040    1.4322 H   0  0  0  0  0  0  0  0  0  0  0  0
   -3.8920    2.9491    0.8981 H   0  0  0  0  0  0  0  0  0  0  0  0
   -4.7434    2.2365   -1.8817 H   0  0  0  0  0  0  0  0  0  0  0  0
   -6.4568    2.5128    0.6756 H   0  0  0  0  0  0  0  0  0  0  0  0
   -5.9375    0.9767    0.0289 H   0  0  0  0  0  0  0  0  0  0  0  0
   -6.6113    0.3839   -2.4366 H   0  0  0  0  0  0  0  0  0  0  0  0
   -8.5702    0.3118   -3.9162 H   0  0  0  0  0  0  0  0  0  0  0  0
  -10.6148    1.1860   -4.3372 H   0  0  0  0  0  0  0  0  0  0  0  0
  -10.4571    3.4096   -1.6041 H   0  0  0  0  0  0  0  0  0  0  0  0
   -8.4959    3.4988   -0.1070 H   0  0  0  0  0  0  0  0  0  0  0  0
   -5.7523    5.4767   -2.3092 H   0  0  0  0  0  0  0  0  0  0  0  0
   -0.0206    4.0353   -0.0353 H   0  0  0  0  0  0  0  0  0  0  0  0
   -2.5852    4.8313    1.4359 H   0  0  0  0  0  0  0  0  0  0  0  0
   -1.3076    5.9209    0.9315 H   0  0  0  0  0  0  0  0  0  0  0  0
   -2.2641    5.0880   -0.3017 H   0  0  0  0  0  0  0  0  0  0  0  0
    0.3580    3.0735    2.1178 H   0  0  0  0  0  0  0  0  0  0  0  0
    6.5656   -0.1614    0.4284 H   0  0  0  0  0  0  0  0  0  0  0  0
    6.8095   -0.6179    3.4507 H   0  0  0  0  0  0  0  0  0  0  0  0
    7.6290   -1.5503    2.1845 H   0  0  0  0  0  0  0  0  0  0  0  0
    8.0302    0.1506    2.4214 H   0  0  0  0  0  0  0  0  0  0  0  0
    4.9660    1.6357    0.9817 H   0  0  0  0  0  0  0  0  0  0  0  0
    5.1532    1.3127    2.7156 H   0  0  0  0  0  0  0  0  0  0  0  0
    6.5101    1.9489    1.7702 H   0  0  0  0  0  0  0  0  0  0  0  0
  1  2  1  0
  2  3  1  0
  2  4  1  0
  4  5  1  0
  4  6  1  0
  6  7  2  0
  6  8  1  0
  8  9  1  0
  9 10  1  0
 10 11  2  0
 10 12  1  0
 12 13  1  0
 13 14  1  0
 14 15  1  0
 13 16  1  0
 16 17  2  0
 16 18  1  0
 18 19  1  0
 19 20  1  0
 20 21  2  0
 20 22  1  0
 22 23  1  0
 23 24  1  0
 24 25  1  0
 25 26  2  0
 26 27  1  0
 27 28  2  0
 28 29  1  0
 28 30  1  0
 30 31  2  0
 23 32  1  0
 32 33  2  0
 32 34  1  0
 19 35  1  0
 35 36  1  0
 35 37  1  0
  9 38  1  0
 38 39  1  0
 38 40  1  0
 31 25  1  0
  1 41  1  0
  1 42  1  0
  1 43  1  0
  2 44  1  0
  3 45  1  0
  3 46  1  0
  3 47  1  0
  4 48  1  6
  5 49  1  0
  5 50  1  0
  8 51  1  0
  9 52  1  1
 12 53  1  0
 13 54  1  6
 14 55  1  0
 14 56  1  0
 15 57  1  0
 18 58  1  0
 19 59  1  1
 22 60  1  0
 23 61  1  6
 24 62  1  0
 24 63  1  0
 26 64  1  0
 27 65  1  0
 29 66  1  0
 30 67  1  0
 31 68  1  0
 34 69  1  0
 35 70  1  6
 36 71  1  0
 36 72  1  0
 36 73  1  0
 37 74  1  0
 38 75  1  0
 39 76  1  0
 39 77  1  0
 39 78  1  0
 40 79  1  0
 40 80  1  0
 40 81  1  0
M  END
$$$$
VVCTY.sdf
     RDKit          3D

 81 81  0  0  0  0  0  0  0  0999 V2000
    3.9448   -5.9611    1.4658 C   0  0  0  0  0  0  0  0  0  0  0  0
    3.2499   -4.5936    1.5279 C   0  0  0  0  0  0  0  0  0  0  0  0
    1.7325   -4.8306    1.5417 C   0  0  0  0  0  0  0  0  0  0  0  0
    3.6572   -3.6616    0.3591 C   0  0  2  0  0  0  0  0  0  0  0  0
    5.1268   -3.5840    0.2093 N   0  0  0  0  0  0  0  0  0  0  0  0
    3.1368   -2.2085    0.5475 C   0  0  0  0  0  0  0  0  0  0  0  0
    2.5261   -1.7956    1.5312 O   0  0  0  0  0  0  0  0  0  0  0  0
    3.4021   -1.3848   -0.5366 N   0  0  0  0  0  0  0  0  0  0  0  0
    2.9572    0.0111   -0.5523 C   0  0  2  0  0  0  0  0  0  0  0  0
    1.4763   -0.0165   -1.0054 C   0  0  0  0  0  0  0  0  0  0  0  0
    1.1140    0.2604   -2.1474 O   0  0  0  0  0  0  0  0  0  0  0  0
    0.6071   -0.4418   -0.0199 N   0  0  0  0  0  0  0  0  0  0  0  0
   -0.7845   -0.8226   -0.2925 C   0  0  1  0  0  0  0  0  0  0  0  0
   -0.9748   -2.3372   -0.4728 C   0  0  0  0  0  0  0  0  0  0  0  0
    0.0382   -3.0604   -1.8122 S   0  0  0  0  0  0  0  0  0  0  0  0
   -1.6943   -0.3218    0.8475 C   0  0  0  0  0  0  0  0  0  0  0  0
   -2.7532   -0.8628    1.1550 O   0  0  0  0  0  0  0  0  0  0  0  0
   -1.2983    0.8728    1.4118 N   0  0  0  0  0  0  0  0  0  0  0  0
   -2.0964    1.5593    2.4390 C   0  0  2  0  0  0  0  0  0  0  0  0
   -3.1346    2.4787    1.7520 C   0  0  0  0  0  0  0  0  0  0  0  0
   -3.1199    3.7052    1.7990 O   0  0  0  0  0  0  0  0  0  0  0  0
   -4.0901    1.7936    1.0315 N   0  0  0  0  0  0  0  0  0  0  0  0
   -5.1646    2.4610    0.2971 C   0  0  1  0  0  0  0  0  0  0  0  0
   -4.6923    3.2976   -0.9077 C   0  0  0  0  0  0  0  0  0  0  0  0
   -3.6654    2.6221   -1.7909 C   0  0  0  0  0  0  0  0  0  0  0  0
   -4.0374    1.6294   -2.7084 C   0  0  0  0  0  0  0  0  0  0  0  0
   -3.0687    0.9755   -3.4711 C   0  0  0  0  0  0  0  0  0  0  0  0
   -1.7311    1.3119   -3.3144 C   0  0  0  0  0  0  0  0  0  0  0  0
   -0.7988    0.5856   -3.9959 O   0  0  0  0  0  0  0  0  0  0  0  0
   -1.3452    2.3244   -2.4430 C   0  0  0  0  0  0  0  0  0  0  0  0
   -2.3118    2.9764   -1.6799 C   0  0  0  0  0  0  0  0  0  0  0  0
   -6.2011    1.4253   -0.1299 C   0  0  0  0  0  0  0  0  0  0  0  0
   -6.0606    0.2118   -0.1406 O   0  0  0  0  0  0  0  0  0  0  0  0
   -7.3724    1.9716   -0.5175 O   0  0  0  0  0  0  0  0  0  0  0  0
   -1.1866    2.2607    3.4719 C   0  0  1  0  0  0  0  0  0  0  0  0
   -0.3961    3.4619    2.9610 C   0  0  0  0  0  0  0  0  0  0  0  0
   -1.9419    2.6263    4.6292 O   0  0  0  0  0  0  0  0  0  0  0  0
    3.8420    0.8701   -1.4828 C   0  0  0  0  0  0  0  0  0  0  0  0
    5.3274    0.7445   -1.1202 C   0  0  0  0  0  0  0  0  0  0  0  0
    3.4412    2.3492   -1.4127 C   0  0  0  0  0  0  0  0  0  0  0  0
    3.5723   -6.6237    2.2549 H   0  0  0  0  0  0  0  0  0  0  0  0
    3.7687   -6.4515    0.5024 H   0  0  0  0  0  0  0  0  0  0  0  0
    5.0254   -5.8688    1.6132 H   0  0  0  0  0  0  0  0  0  0  0  0
    3.5244   -4.1214    2.4805 H   0  0  0  0  0  0  0  0  0  0  0  0
    1.1751   -3.9001    1.6738 H   0  0  0  0  0  0  0  0  0  0  0  0
    1.3972   -5.2972    0.6092 H   0  0  0  0  0  0  0  0  0  0  0  0
    1.4514   -5.4928    2.3680 H   0  0  0  0  0  0  0  0  0  0  0  0
    3.2338   -4.0432   -0.5786 H   0  0  0  0  0  0  0  0  0  0  0  0
    5.3666   -2.8912   -0.4978 H   0  0  0  0  0  0  0  0  0  0  0  0
    5.4845   -4.4776   -0.1239 H   0  0  0  0  0  0  0  0  0  0  0  0
    3.5371   -1.8395   -1.4320 H   0  0  0  0  0  0  0  0  0  0  0  0
    3.0001    0.4113    0.4688 H   0  0  0  0  0  0  0  0  0  0  0  0
    1.0331   -0.8310    0.8261 H   0  0  0  0  0  0  0  0  0  0  0  0
   -1.1173   -0.3137   -1.1986 H   0  0  0  0  0  0  0  0  0  0  0  0
   -0.7203   -2.8640    0.4531 H   0  0  0  0  0  0  0  0  0  0  0  0
   -2.0228   -2.5640   -0.6967 H   0  0  0  0  0  0  0  0  0  0  0  0
   -0.4209   -2.2623   -2.7917 H   0  0  0  0  0  0  0  0  0  0  0  0
   -0.6209    1.4114    0.8842 H   0  0  0  0  0  0  0  0  0  0  0  0
   -2.6813    0.8038    2.9819 H   0  0  0  0  0  0  0  0  0  0  0  0
   -4.0370    0.7732    0.9828 H   0  0  0  0  0  0  0  0  0  0  0  0
   -5.6639    3.1235    1.0160 H   0  0  0  0  0  0  0  0  0  0  0  0
   -5.5449    3.5959   -1.5314 H   0  0  0  0  0  0  0  0  0  0  0  0
   -4.2676    4.2405   -0.5390 H   0  0  0  0  0  0  0  0  0  0  0  0
   -5.0797    1.3455   -2.8305 H   0  0  0  0  0  0  0  0  0  0  0  0
   -3.3546    0.1900   -4.1644 H   0  0  0  0  0  0  0  0  0  0  0  0
    0.0336    0.6104   -3.4721 H   0  0  0  0  0  0  0  0  0  0  0  0
   -0.3007    2.6020   -2.3426 H   0  0  0  0  0  0  0  0  0  0  0  0
   -2.0060    3.7575   -0.9860 H   0  0  0  0  0  0  0  0  0  0  0  0
   -7.9361    1.1972   -0.7293 H   0  0  0  0  0  0  0  0  0  0  0  0
   -0.4564    1.5171    3.8173 H   0  0  0  0  0  0  0  0  0  0  0  0
   -1.0270    4.3450    2.8294 H   0  0  0  0  0  0  0  0  0  0  0  0
    0.1225    3.2445    2.0234 H   0  0  0  0  0  0  0  0  0  0  0  0
    0.3582    3.7486    3.7032 H   0  0  0  0  0  0  0  0  0  0  0  0
   -1.3661    3.1511    5.2119 H   0  0  0  0  0  0  0  0  0  0  0  0
    3.7216    0.5314   -2.5201 H   0  0  0  0  0  0  0  0  0  0  0  0
    5.6880   -0.2793   -1.2618 H   0  0  0  0  0  0  0  0  0  0  0  0
    5.9387    1.3937   -1.7565 H   0  0  0  0  0  0  0  0  0  0  0  0
    5.5060    1.0279   -0.0773 H   0  0  0  0  0  0  0  0  0  0  0  0
    2.4062    2.5043   -1.7310 H   0  0  0  0  0  0  0  0  0  0  0  0
    4.0769    2.9538   -2.0688 H   0  0  0  0  0  0  0  0  0  0  0  0
    3.5426    2.7385   -0.3938 H   0  0  0  0  0  0  0  0  0  0  0  0
  1  2  1  0
  2  3  1  0
  2  4  1  0
  4  5  1  0
  4  6  1  0
  6  7  2  0
  6  8  1  0
  8  9  1  0
  9 10  1  0
 10 11  2  0
 10 12  1  0
 12 13  1  0
 13 14  1  0
 14 15  1  0
 13 16  1  0
 16 17  2  0
 16 18  1  0
 18 19  1  0
 19 20  1  0
 20 21  2  0
 20 22  1  0
 22 23  1  0
 23 24  1  0
 24 25  1  0
 25 26  2  0
 26 27  1  0
 27 28  2  0
 28 29  1  0
 28 30  1  0
 30 31  2  0
 23 32  1  0
 32 33  2  0
 32 34  1  0
 19 35  1  0
 35 36  1  0
 35 37  1  0
  9 38  1  0
 38 39  1  0
 38 40  1  0
 31 25  1  0
  1 41  1  0
  1 42  1  0
  1 43  1  0
  2 44  1  0
  3 45  1  0
  3 46  1  0
  3 47  1  0
  4 48  1  6
  5 49  1  0
  5 50  1  0
  8 51  1  0
  9 52  1  1
 12 53  1  0
 13 54  1  6
 14 55  1  0
 14 56  1  0
 15 57  1  0
 18 58  1  0
 19 59  1  1
 22 60  1  0
 23 61  1  1
 24 62  1  0
 24 63  1  0
 26 64  1  0
 27 65  1  0
 29 66  1  0
 30 67  1  0
 31 68  1  0
 34 69  1  0
 35 70  1  1
 36 71  1  0
 36 72  1  0
 36 73  1  0
 37 74  1  0
 38 75  1  0
 39 76  1  0
 39 77  1  0
 39 78  1  0
 40 79  1  0
 40 80  1  0
 40 81  1  0
M  END
$$$$
VVCTY.sdf
     RDKit          3D

 81 81  0  0  0  0  0  0  0  0999 V2000
    5.3202   -7.3322   -0.7586 C   0  0  0  0  0  0  0  0  0  0  0  0
    4.3543   -6.2467   -0.2648 C   0  0  0  0  0  0  0  0  0  0  0  0
    3.5403   -5.7376   -1.4631 C   0  0  0  0  0  0  0  0  0  0  0  0
    5.0946   -5.0813    0.4334 C   0  0  2  0  0  0  0  0  0  0  0  0
    6.0008   -5.5726    1.4974 N   0  0  0  0  0  0  0  0  0  0  0  0
    4.1209   -4.0685    1.0936 C   0  0  0  0  0  0  0  0  0  0  0  0
    2.9420   -4.3037    1.3370 O   0  0  0  0  0  0  0  0  0  0  0  0
    4.7443   -2.8833    1.4556 N   0  0  0  0  0  0  0  0  0  0  0  0
    3.9368   -1.7400    1.8857 C   0  0  2  0  0  0  0  0  0  0  0  0
    3.5457   -0.9630    0.6090 C   0  0  0  0  0  0  0  0  0  0  0  0
    4.2448   -0.9635   -0.4052 O   0  0  0  0  0  0  0  0  0  0  0  0
    2.3818   -0.2441    0.6946 N   0  0  0  0  0  0  0  0  0  0  0  0
    1.9008    0.6003   -0.4001 C   0  0  1  0  0  0  0  0  0  0  0  0
    1.2822   -0.2408   -1.5262 C   0  0  0  0  0  0  0  0  0  0  0  0
    1.3506    0.6193   -3.1384 S   0  0  0  0  0  0  0  0  0  0  0  0
    0.8743    1.5746    0.2185 C   0  0  0  0  0  0  0  0  0  0  0  0
    0.5828    1.5339    1.4149 O   0  0  0  0  0  0  0  0  0  0  0  0
    0.3477    2.5084   -0.6495 N   0  0  0  0  0  0  0  0  0  0  0  0
   -0.8156    3.3042   -0.2484 C   0  0  2  0  0  0  0  0  0  0  0  0
   -2.1002    2.5242   -0.6118 C   0  0  0  0  0  0  0  0  0  0  0  0
   -2.0818    1.4829   -1.2658 O   0  0  0  0  0  0  0  0  0  0  0  0
   -3.2640    3.1009   -0.1485 N   0  0  0  0  0  0  0  0  0  0  0  0
   -4.5764    2.5926   -0.5634 C   0  0  1  0  0  0  0  0  0  0  0  0
   -5.6292    2.9340    0.4978 C   0  0  0  0  0  0  0  0  0  0  0  0
   -6.9802    2.3082    0.2459 C   0  0  0  0  0  0  0  0  0  0  0  0
   -7.1712    0.9322    0.4351 C   0  0  0  0  0  0  0  0  0  0  0  0
   -8.4177    0.3531    0.1940 C   0  0  0  0  0  0  0  0  0  0  0  0
   -9.4746    1.1458   -0.2348 C   0  0  0  0  0  0  0  0  0  0  0  0
  -10.6751    0.5386   -0.4569 O   0  0  0  0  0  0  0  0  0  0  0  0
   -9.3068    2.5127   -0.4283 C   0  0  0  0  0  0  0  0  0  0  0  0
   -8.0591    3.0929   -0.1878 C   0  0  0  0  0  0  0  0  0  0  0  0
   -4.9351    3.2634   -1.8886 C   0  0  0  0  0  0  0  0  0  0  0  0
   -4.7289    4.4331   -2.1830 O   0  0  0  0  0  0  0  0  0  0  0  0
   -5.5436    2.4374   -2.7614 O   0  0  0  0  0  0  0  0  0  0  0  0
   -0.8048    4.7089   -0.8886 C   0  0  1  0  0  0  0  0  0  0  0  0
   -0.9609    4.7083   -2.4067 C   0  0  0  0  0  0  0  0  0  0  0  0
   -1.8443    5.5112   -0.3091 O   0  0  0  0  0  0  0  0  0  0  0  0
    4.7039   -0.8814    2.9167 C   0  0  0  0  0  0  0  0  0  0  0  0
    5.9269   -0.1659    2.3339 C   0  0  0  0  0  0  0  0  0  0  0  0
    3.7939    0.1332    3.6142 C   0  0  0  0  0  0  0  0  0  0  0  0
    5.8403   -7.8154    0.0746 H   0  0  0  0  0  0  0  0  0  0  0  0
    4.7791   -8.1169   -1.2986 H   0  0  0  0  0  0  0  0  0  0  0  0
    6.0730   -6.9142   -1.4358 H   0  0  0  0  0  0  0  0  0  0  0  0
    3.6559   -6.7135    0.4425 H   0  0  0  0  0  0  0  0  0  0  0  0
    3.0164   -6.5648   -1.9543 H   0  0  0  0  0  0  0  0  0  0  0  0
    2.7831   -5.0087   -1.1604 H   0  0  0  0  0  0  0  0  0  0  0  0
    4.1884   -5.2611   -2.2069 H   0  0  0  0  0  0  0  0  0  0  0  0
    5.6982   -4.5419   -0.3072 H   0  0  0  0  0  0  0  0  0  0  0  0
    5.4443   -6.1149    2.1612 H   0  0  0  0  0  0  0  0  0  0  0  0
    6.3453   -4.7718    2.0285 H   0  0  0  0  0  0  0  0  0  0  0  0
    5.5599   -2.6465    0.9001 H   0  0  0  0  0  0  0  0  0  0  0  0
    3.0187   -2.1225    2.3480 H   0  0  0  0  0  0  0  0  0  0  0  0
    1.8350   -0.2322    1.5530 H   0  0  0  0  0  0  0  0  0  0  0  0
    2.7614    1.1824   -0.7523 H   0  0  0  0  0  0  0  0  0  0  0  0
    1.8099   -1.1915   -1.6533 H   0  0  0  0  0  0  0  0  0  0  0  0
    0.2350   -0.4761   -1.3076 H   0  0  0  0  0  0  0  0  0  0  0  0
    2.6715    0.4638   -3.3280 H   0  0  0  0  0  0  0  0  0  0  0  0
    0.3623    2.2376   -1.6309 H   0  0  0  0  0  0  0  0  0  0  0  0
   -0.8172    3.4134    0.8436 H   0  0  0  0  0  0  0  0  0  0  0  0
   -3.1959    4.1054    0.0304 H   0  0  0  0  0  0  0  0  0  0  0  0
   -4.4957    1.5109   -0.7198 H   0  0  0  0  0  0  0  0  0  0  0  0
   -5.7389    4.0239    0.5827 H   0  0  0  0  0  0  0  0  0  0  0  0
   -5.2803    2.6020    1.4852 H   0  0  0  0  0  0  0  0  0  0  0  0
   -6.3521    0.3000    0.7718 H   0  0  0  0  0  0  0  0  0  0  0  0
   -8.5628   -0.7135    0.3404 H   0  0  0  0  0  0  0  0  0  0  0  0
  -11.3130    1.2111   -0.7457 H   0  0  0  0  0  0  0  0  0  0  0  0
  -10.1279    3.1386   -0.7625 H   0  0  0  0  0  0  0  0  0  0  0  0
   -7.9361    4.1630   -0.3419 H   0  0  0  0  0  0  0  0  0  0  0  0
   -5.7062    2.9832   -3.5573 H   0  0  0  0  0  0  0  0  0  0  0  0
    0.1451    5.1965   -0.6373 H   0  0  0  0  0  0  0  0  0  0  0  0
   -0.1712    4.1306   -2.8951 H   0  0  0  0  0  0  0  0  0  0  0  0
   -1.9320    4.3066   -2.7116 H   0  0  0  0  0  0  0  0  0  0  0  0
   -0.9194    5.7337   -2.7906 H   0  0  0  0  0  0  0  0  0  0  0  0
   -1.8013    6.3901   -0.7306 H   0  0  0  0  0  0  0  0  0  0  0  0
    5.0725   -1.5632    3.6960 H   0  0  0  0  0  0  0  0  0  0  0  0
    6.6219   -0.8735    1.8716 H   0  0  0  0  0  0  0  0  0  0  0  0
    5.6419    0.5765    1.5814 H   0  0  0  0  0  0  0  0  0  0  0  0
    6.4743    0.3598    3.1242 H   0  0  0  0  0  0  0  0  0  0  0  0
    4.3212    0.6089    4.4485 H   0  0  0  0  0  0  0  0  0  0  0  0
    3.4731    0.9283    2.9342 H   0  0  0  0  0  0  0  0  0  0  0  0
    2.9021   -0.3541    4.0216 H   0  0  0  0  0  0  0  0  0  0  0  0
  1  2  1  0
  2  3  1  0
  2  4  1  0
  4  5  1  0
  4  6  1  0
  6  7  2  0
  6  8  1  0
  8  9  1  0
  9 10  1  0
 10 11  2  0
 10 12  1  0
 12 13  1  0
 13 14  1  0
 14 15  1  0
 13 16  1  0
 16 17  2  0
 16 18  1  0
 18 19  1  0
 19 20  1  0
 20 21  2  0
 20 22  1  0
 22 23  1  0
 23 24  1  0
 24 25  1  0
 25 26  2  0
 26 27  1  0
 27 28  2  0
 28 29  1  0
 28 30  1  0
 30 31  2  0
 23 32  1  0
 32 33  2  0
 32 34  1  0
 19 35  1  0
 35 36  1  0
 35 37  1  0
  9 38  1  0
 38 39  1  0
 38 40  1  0
 31 25  1  0
  1 41  1  0
  1 42  1  0
  1 43  1  0
  2 44  1  0
  3 45  1  0
  3 46  1  0
  3 47  1  0
  4 48  1  6
  5 49  1  0
  5 50  1  0
  8 51  1  0
  9 52  1  1
 12 53  1  0
 13 54  1  6
 14 55  1  0
 14 56  1  0
 15 57  1  0
 18 58  1  0
 19 59  1  1
 22 60  1  0
 23 61  1  6
 24 62  1  0
 24 63  1  0
 26 64  1  0
 27 65  1  0
 29 66  1  0
 30 67  1  0
 31 68  1  0
 34 69  1  0
 35 70  1  6
 36 71  1  0
 36 72  1  0
 36 73  1  0
 37 74  1  0
 38 75  1  0
 39 76  1  0
 39 77  1  0
 39 78  1  0
 40 79  1  0
 40 80  1  0
 40 81  1  0
M  END
$$$$
VVCTY.sdf
     RDKit          3D

 81 81  0  0  0  0  0  0  0  0999 V2000
    1.3197   -6.1108    1.4323 C   0  0  0  0  0  0  0  0  0  0  0  0
    2.1534   -4.8306    1.3116 C   0  0  0  0  0  0  0  0  0  0  0  0
    2.8310   -4.5254    2.6524 C   0  0  0  0  0  0  0  0  0  0  0  0
    3.1457   -4.9159    0.1268 C   0  0  2  0  0  0  0  0  0  0  0  0
    4.1547   -5.9837    0.3026 N   0  0  0  0  0  0  0  0  0  0  0  0
    3.8632   -3.5642   -0.1207 C   0  0  0  0  0  0  0  0  0  0  0  0
    5.0609   -3.4021    0.1084 O   0  0  0  0  0  0  0  0  0  0  0  0
    3.0566   -2.5774   -0.6461 N   0  0  0  0  0  0  0  0  0  0  0  0
    3.4984   -1.1843   -0.6630 C   0  0  2  0  0  0  0  0  0  0  0  0
    2.8545   -0.4808    0.5540 C   0  0  0  0  0  0  0  0  0  0  0  0
    1.8824   -0.9498    1.1474 O   0  0  0  0  0  0  0  0  0  0  0  0
    3.4281    0.7250    0.8990 N   0  0  0  0  0  0  0  0  0  0  0  0
    2.7543    1.6076    1.8486 C   0  0  1  0  0  0  0  0  0  0  0  0
    3.7288    2.4799    2.6474 C   0  0  0  0  0  0  0  0  0  0  0  0
    4.7549    1.5018    3.7919 S   0  0  0  0  0  0  0  0  0  0  0  0
    1.8646    2.5518    1.0191 C   0  0  0  0  0  0  0  0  0  0  0  0
    2.2544    3.0368   -0.0432 O   0  0  0  0  0  0  0  0  0  0  0  0
    0.6698    2.8899    1.6157 N   0  0  0  0  0  0  0  0  0  0  0  0
   -0.4237    3.6057    0.9264 C   0  0  2  0  0  0  0  0  0  0  0  0
   -1.2993    2.5566    0.2085 C   0  0  0  0  0  0  0  0  0  0  0  0
   -0.8297    1.5958   -0.3951 O   0  0  0  0  0  0  0  0  0  0  0  0
   -2.6608    2.7575    0.3262 N   0  0  0  0  0  0  0  0  0  0  0  0
   -3.6100    1.9100   -0.4170 C   0  0  1  0  0  0  0  0  0  0  0  0
   -4.9123    1.7577    0.3782 C   0  0  0  0  0  0  0  0  0  0  0  0
   -5.8822    0.7691   -0.2224 C   0  0  0  0  0  0  0  0  0  0  0  0
   -7.0485    1.2155   -0.8598 C   0  0  0  0  0  0  0  0  0  0  0  0
   -7.9372    0.3002   -1.4255 C   0  0  0  0  0  0  0  0  0  0  0  0
   -7.6635   -1.0598   -1.3563 C   0  0  0  0  0  0  0  0  0  0  0  0
   -8.5586   -1.9173   -1.9240 O   0  0  0  0  0  0  0  0  0  0  0  0
   -6.5133   -1.5237   -0.7274 C   0  0  0  0  0  0  0  0  0  0  0  0
   -5.6236   -0.6084   -0.1603 C   0  0  0  0  0  0  0  0  0  0  0  0
   -3.8882    2.6034   -1.7479 C   0  0  0  0  0  0  0  0  0  0  0  0
   -4.0218    3.8096   -1.9040 O   0  0  0  0  0  0  0  0  0  0  0  0
   -3.9965    1.7569   -2.7879 O   0  0  0  0  0  0  0  0  0  0  0  0
   -0.0117    4.7309   -0.0522 C   0  0  1  0  0  0  0  0  0  0  0  0
   -1.1428    5.7183   -0.3190 C   0  0  0  0  0  0  0  0  0  0  0  0
    1.0739    5.4960    0.4879 O   0  0  0  0  0  0  0  0  0  0  0  0
    3.1414   -0.4696   -1.9856 C   0  0  0  0  0  0  0  0  0  0  0  0
    3.9545   -1.0442   -3.1495 C   0  0  0  0  0  0  0  0  0  0  0  0
    1.6473   -0.5219   -2.3197 C   0  0  0  0  0  0  0  0  0  0  0  0
    1.9383   -6.9758    1.6932 H   0  0  0  0  0  0  0  0  0  0  0  0
    0.8053   -6.3298    0.4906 H   0  0  0  0  0  0  0  0  0  0  0  0
    0.5558   -6.0010    2.2098 H   0  0  0  0  0  0  0  0  0  0  0  0
    1.4510   -4.0104    1.1163 H   0  0  0  0  0  0  0  0  0  0  0  0
    3.5054   -5.3305    2.9613 H   0  0  0  0  0  0  0  0  0  0  0  0
    3.4060   -3.5953    2.6049 H   0  0  0  0  0  0  0  0  0  0  0  0
    2.0797   -4.4047    3.4407 H   0  0  0  0  0  0  0  0  0  0  0  0
    2.5870   -5.1498   -0.7886 H   0  0  0  0  0  0  0  0  0  0  0  0
    4.7829   -5.6844    1.0542 H   0  0  0  0  0  0  0  0  0  0  0  0
    4.7626   -5.9713   -0.5196 H   0  0  0  0  0  0  0  0  0  0  0  0
    2.0577   -2.6964   -0.5165 H   0  0  0  0  0  0  0  0  0  0  0  0
    4.5847   -1.1456   -0.5147 H   0  0  0  0  0  0  0  0  0  0  0  0
    4.0163    1.1767    0.2079 H   0  0  0  0  0  0  0  0  0  0  0  0
    2.1247    1.0167    2.5238 H   0  0  0  0  0  0  0  0  0  0  0  0
    4.4007    3.0273    1.9766 H   0  0  0  0  0  0  0  0  0  0  0  0
    3.1837    3.2231    3.2395 H   0  0  0  0  0  0  0  0  0  0  0  0
    5.4973    2.5224    4.2460 H   0  0  0  0  0  0  0  0  0  0  0  0
    0.3550    2.2555    2.3410 H   0  0  0  0  0  0  0  0  0  0  0  0
   -1.0044    4.0389    1.7506 H   0  0  0  0  0  0  0  0  0  0  0  0
   -2.9834    3.6950    0.5405 H   0  0  0  0  0  0  0  0  0  0  0  0
   -3.1415    0.9386   -0.6102 H   0  0  0  0  0  0  0  0  0  0  0  0
   -5.4029    2.7344    0.4897 H   0  0  0  0  0  0  0  0  0  0  0  0
   -4.6843    1.4308    1.4019 H   0  0  0  0  0  0  0  0  0  0  0  0
   -7.2766    2.2772   -0.9237 H   0  0  0  0  0  0  0  0  0  0  0  0
   -8.8406    0.6471   -1.9192 H   0  0  0  0  0  0  0  0  0  0  0  0
   -8.2362   -2.8254   -1.8030 H   0  0  0  0  0  0  0  0  0  0  0  0
   -6.2921   -2.5847   -0.6692 H   0  0  0  0  0  0  0  0  0  0  0  0
   -4.7255   -0.9795    0.3297 H   0  0  0  0  0  0  0  0  0  0  0  0
   -4.1785    2.3239   -3.5655 H   0  0  0  0  0  0  0  0  0  0  0  0
    0.3116    4.3182   -1.0156 H   0  0  0  0  0  0  0  0  0  0  0  0
   -0.7835    6.5511   -0.9339 H   0  0  0  0  0  0  0  0  0  0  0  0
   -1.9779    5.2481   -0.8420 H   0  0  0  0  0  0  0  0  0  0  0  0
   -1.5115    6.1564    0.6150 H   0  0  0  0  0  0  0  0  0  0  0  0
    1.8682    4.9518    0.3079 H   0  0  0  0  0  0  0  0  0  0  0  0
    3.4141    0.5895   -1.8930 H   0  0  0  0  0  0  0  0  0  0  0  0
    3.7061   -2.0943   -3.3362 H   0  0  0  0  0  0  0  0  0  0  0  0
    3.7591   -0.4848   -4.0707 H   0  0  0  0  0  0  0  0  0  0  0  0
    5.0280   -0.9798   -2.9429 H   0  0  0  0  0  0  0  0  0  0  0  0
    1.0454   -0.0966   -1.5118 H   0  0  0  0  0  0  0  0  0  0  0  0
    1.3058   -1.5468   -2.4977 H   0  0  0  0  0  0  0  0  0  0  0  0
    1.4374    0.0581   -3.2252 H   0  0  0  0  0  0  0  0  0  0  0  0
  1  2  1  0
  2  3  1  0
  2  4  1  0
  4  5  1  0
  4  6  1  0
  6  7  2  0
  6  8  1  0
  8  9  1  0
  9 10  1  0
 10 11  2  0
 10 12  1  0
 12 13  1  0
 13 14  1  0
 14 15  1  0
 13 16  1  0
 16 17  2  0
 16 18  1  0
 18 19  1  0
 19 20  1  0
 20 21  2  0
 20 22  1  0
 22 23  1  0
 23 24  1  0
 24 25  1  0
 25 26  2  0
 26 27  1  0
 27 28  2  0
 28 29  1  0
 28 30  1  0
 30 31  2  0
 23 32  1  0
 32 33  2  0
 32 34  1  0
 19 35  1  0
 35 36  1  0
 35 37  1  0
  9 38  1  0
 38 39  1  0
 38 40  1  0
 31 25  1  0
  1 41  1  0
  1 42  1  0
  1 43  1  0
  2 44  1  0
  3 45  1  0
  3 46  1  0
  3 47  1  0
  4 48  1  6
  5 49  1  0
  5 50  1  0
  8 51  1  0
  9 52  1  1
 12 53  1  0
 13 54  1  1
 14 55  1  0
 14 56  1  0
 15 57  1  0
 18 58  1  0
 19 59  1  1
 22 60  1  0
 23 61  1  6
 24 62  1  0
 24 63  1  0
 26 64  1  0
 27 65  1  0
 29 66  1  0
 30 67  1  0
 31 68  1  0
 34 69  1  0
 35 70  1  6
 36 71  1  0
 36 72  1  0
 36 73  1  0
 37 74  1  0
 38 75  1  0
 39 76  1  0
 39 77  1  0
 39 78  1  0
 40 79  1  0
 40 80  1  0
 40 81  1  0
M  END
$$$$
VVCTY.sdf
     RDKit          3D

 81 81  0  0  0  0  0  0  0  0999 V2000
    5.7673   -7.2679    0.3095 C   0  0  0  0  0  0  0  0  0  0  0  0
    4.5955   -6.3673    0.7282 C   0  0  0  0  0  0  0  0  0  0  0  0
    3.2910   -7.1380    0.4835 C   0  0  0  0  0  0  0  0  0  0  0  0
    4.6131   -5.0028   -0.0093 C   0  0  2  0  0  0  0  0  0  0  0  0
    5.9338   -4.3234    0.1385 N   0  0  0  0  0  0  0  0  0  0  0  0
    3.4991   -4.0474    0.5091 C   0  0  0  0  0  0  0  0  0  0  0  0
    2.3005   -4.2557    0.3447 O   0  0  0  0  0  0  0  0  0  0  0  0
    3.9840   -2.9429    1.1828 N   0  0  0  0  0  0  0  0  0  0  0  0
    3.1022   -1.8330    1.5150 C   0  0  2  0  0  0  0  0  0  0  0  0
    3.0364   -0.8615    0.3151 C   0  0  0  0  0  0  0  0  0  0  0  0
    3.9043   -0.8019   -0.5548 O   0  0  0  0  0  0  0  0  0  0  0  0
    1.9477   -0.0222    0.3147 N   0  0  0  0  0  0  0  0  0  0  0  0
    1.7619    1.0064   -0.7091 C   0  0  1  0  0  0  0  0  0  0  0  0
    1.3039    0.3967   -2.0418 C   0  0  0  0  0  0  0  0  0  0  0  0
    1.7310    1.4613   -3.4638 S   0  0  0  0  0  0  0  0  0  0  0  0
    0.7182    1.9967   -0.1487 C   0  0  0  0  0  0  0  0  0  0  0  0
    0.1583    1.8109    0.9330 O   0  0  0  0  0  0  0  0  0  0  0  0
    0.4772    3.1114   -0.9249 N   0  0  0  0  0  0  0  0  0  0  0  0
   -0.6421    4.0060   -0.5876 C   0  0  2  0  0  0  0  0  0  0  0  0
   -1.9057    3.4002   -1.2190 C   0  0  0  0  0  0  0  0  0  0  0  0
   -1.9123    2.9662   -2.3690 O   0  0  0  0  0  0  0  0  0  0  0  0
   -3.0098    3.3705   -0.3973 N   0  0  0  0  0  0  0  0  0  0  0  0
   -4.3290    2.9590   -0.8998 C   0  0  1  0  0  0  0  0  0  0  0  0
   -5.1005    2.2143    0.1962 C   0  0  0  0  0  0  0  0  0  0  0  0
   -6.4057    1.6177   -0.2728 C   0  0  0  0  0  0  0  0  0  0  0  0
   -7.6285    2.1900    0.1082 C   0  0  0  0  0  0  0  0  0  0  0  0
   -8.8358    1.6430   -0.3331 C   0  0  0  0  0  0  0  0  0  0  0  0
   -8.8190    0.5227   -1.1569 C   0  0  0  0  0  0  0  0  0  0  0  0
   -9.9734   -0.0436   -1.6101 O   0  0  0  0  0  0  0  0  0  0  0  0
   -7.6178   -0.0572   -1.5444 C   0  0  0  0  0  0  0  0  0  0  0  0
   -6.4114    0.4880   -1.1033 C   0  0  0  0  0  0  0  0  0  0  0  0
   -5.0721    4.2333   -1.2903 C   0  0  0  0  0  0  0  0  0  0  0  0
   -5.0515    5.2874   -0.6690 O   0  0  0  0  0  0  0  0  0  0  0  0
   -5.7971    4.1144   -2.4176 O   0  0  0  0  0  0  0  0  0  0  0  0
   -0.3789    5.4122   -1.1552 C   0  0  1  0  0  0  0  0  0  0  0  0
   -1.4664    6.4162   -0.7987 C   0  0  0  0  0  0  0  0  0  0  0  0
    0.8535    5.9166   -0.6191 O   0  0  0  0  0  0  0  0  0  0  0  0
    3.5376   -1.0953    2.8015 C   0  0  0  0  0  0  0  0  0  0  0  0
    4.9714   -0.5586    2.7378 C   0  0  0  0  0  0  0  0  0  0  0  0
    3.3749   -1.9982    4.0282 C   0  0  0  0  0  0  0  0  0  0  0  0
    5.7767   -7.4251   -0.7745 H   0  0  0  0  0  0  0  0  0  0  0  0
    6.7303   -6.8392    0.6033 H   0  0  0  0  0  0  0  0  0  0  0  0
    5.6976   -8.2490    0.7923 H   0  0  0  0  0  0  0  0  0  0  0  0
    4.6752   -6.1909    1.8094 H   0  0  0  0  0  0  0  0  0  0  0  0
    2.4353   -6.6386    0.9455 H   0  0  0  0  0  0  0  0  0  0  0  0
    3.3411   -8.1407    0.9224 H   0  0  0  0  0  0  0  0  0  0  0  0
    3.0906   -7.2488   -0.5875 H   0  0  0  0  0  0  0  0  0  0  0  0
    4.4325   -5.1387   -1.0824 H   0  0  0  0  0  0  0  0  0  0  0  0
    6.2506   -4.4463    1.1017 H   0  0  0  0  0  0  0  0  0  0  0  0
    6.6160   -4.8137   -0.4403 H   0  0  0  0  0  0  0  0  0  0  0  0
    4.9220   -2.7073    0.8562 H   0  0  0  0  0  0  0  0  0  0  0  0
    2.0884   -2.2282    1.6606 H   0  0  0  0  0  0  0  0  0  0  0  0
    1.2704   -0.0465    1.0737 H   0  0  0  0  0  0  0  0  0  0  0  0
    2.7200    1.5314   -0.8089 H   0  0  0  0  0  0  0  0  0  0  0  0
    0.2193    0.2422   -2.0457 H   0  0  0  0  0  0  0  0  0  0  0  0
    1.7720   -0.5761   -2.2221 H   0  0  0  0  0  0  0  0  0  0  0  0
    3.0459    1.1841   -3.4610 H   0  0  0  0  0  0  0  0  0  0  0  0
    0.6502    2.9973   -1.9240 H   0  0  0  0  0  0  0  0  0  0  0  0
   -0.7345    4.0462    0.5038 H   0  0  0  0  0  0  0  0  0  0  0  0
   -3.0058    3.9610    0.4280 H   0  0  0  0  0  0  0  0  0  0  0  0
   -4.1916    2.3366   -1.7908 H   0  0  0  0  0  0  0  0  0  0  0  0
   -5.2869    2.8831    1.0476 H   0  0  0  0  0  0  0  0  0  0  0  0
   -4.4797    1.4020    0.5983 H   0  0  0  0  0  0  0  0  0  0  0  0
   -7.6511    3.0666    0.7525 H   0  0  0  0  0  0  0  0  0  0  0  0
   -9.7703    2.1011   -0.0254 H   0  0  0  0  0  0  0  0  0  0  0  0
  -10.7249    0.4588   -1.2558 H   0  0  0  0  0  0  0  0  0  0  0  0
   -7.6197   -0.9321   -2.1884 H   0  0  0  0  0  0  0  0  0  0  0  0
   -5.4781    0.0225   -1.4133 H   0  0  0  0  0  0  0  0  0  0  0  0
   -6.2127    4.9910   -2.5508 H   0  0  0  0  0  0  0  0  0  0  0  0
   -0.2653    5.3755   -2.2453 H   0  0  0  0  0  0  0  0  0  0  0  0
   -1.6092    6.4707    0.2861 H   0  0  0  0  0  0  0  0  0  0  0  0
   -2.4206    6.1625   -1.2675 H   0  0  0  0  0  0  0  0  0  0  0  0
   -1.1807    7.4213   -1.1282 H   0  0  0  0  0  0  0  0  0  0  0  0
    1.5047    5.1940   -0.6886 H   0  0  0  0  0  0  0  0  0  0  0  0
    2.8752   -0.2314    2.9447 H   0  0  0  0  0  0  0  0  0  0  0  0
    5.7046   -1.3668    2.6490 H   0  0  0  0  0  0  0  0  0  0  0  0
    5.1052    0.1201    1.8899 H   0  0  0  0  0  0  0  0  0  0  0  0
    5.2094    0.0040    3.6474 H   0  0  0  0  0  0  0  0  0  0  0  0
    2.3450   -2.3613    4.1099 H   0  0  0  0  0  0  0  0  0  0  0  0
    3.6071   -1.4481    4.9464 H   0  0  0  0  0  0  0  0  0  0  0  0
    4.0398   -2.8672    3.9811 H   0  0  0  0  0  0  0  0  0  0  0  0
  1  2  1  0
  2  3  1  0
  2  4  1  0
  4  5  1  0
  4  6  1  0
  6  7  2  0
  6  8  1  0
  8  9  1  0
  9 10  1  0
 10 11  2  0
 10 12  1  0
 12 13  1  0
 13 14  1  0
 14 15  1  0
 13 16  1  0
 16 17  2  0
 16 18  1  0
 18 19  1  0
 19 20  1  0
 20 21  2  0
 20 22  1  0
 22 23  1  0
 23 24  1  0
 24 25  1  0
 25 26  2  0
 26 27  1  0
 27 28  2  0
 28 29  1  0
 28 30  1  0
 30 31  2  0
 23 32  1  0
 32 33  2  0
 32 34  1  0
 19 35  1  0
 35 36  1  0
 35 37  1  0
  9 38  1  0
 38 39  1  0
 38 40  1  0
 31 25  1  0
  1 41  1  0
  1 42  1  0
  1 43  1  0
  2 44  1  0
  3 45  1  0
  3 46  1  0
  3 47  1  0
  4 48  1  6
  5 49  1  0
  5 50  1  0
  8 51  1  0
  9 52  1  1
 12 53  1  0
 13 54  1  6
 14 55  1  0
 14 56  1  0
 15 57  1  0
 18 58  1  0
 19 59  1  1
 22 60  1  0
 23 61  1  6
 24 62  1  0
 24 63  1  0
 26 64  1  0
 27 65  1  0
 29 66  1  0
 30 67  1  0
 31 68  1  0
 34 69  1  0
 35 70  1  6
 36 71  1  0
 36 72  1  0
 36 73  1  0
 37 74  1  0
 38 75  1  0
 39 76  1  0
 39 77  1  0
 39 78  1  0
 40 79  1  0
 40 80  1  0
 40 81  1  0
M  END
$$$$
VVCTY.sdf
     RDKit          3D

 81 81  0  0  0  0  0  0  0  0999 V2000
    3.8654   -5.7783    1.4193 C   0  0  0  0  0  0  0  0  0  0  0  0
    2.9494   -4.9834    2.3580 C   0  0  0  0  0  0  0  0  0  0  0  0
    1.6267   -5.7356    2.5440 C   0  0  0  0  0  0  0  0  0  0  0  0
    2.7072   -3.5282    1.8893 C   0  0  2  0  0  0  0  0  0  0  0  0
    2.1199   -3.4716    0.5323 N   0  0  0  0  0  0  0  0  0  0  0  0
    3.9957   -2.6625    1.9916 C   0  0  0  0  0  0  0  0  0  0  0  0
    4.9455   -2.9481    2.7137 O   0  0  0  0  0  0  0  0  0  0  0  0
    3.9524   -1.5009    1.2435 N   0  0  0  0  0  0  0  0  0  0  0  0
    4.9664   -0.4406    1.3932 C   0  0  2  0  0  0  0  0  0  0  0  0
    4.3891    0.8035    0.6831 C   0  0  0  0  0  0  0  0  0  0  0  0
    4.4369    1.9327    1.1595 O   0  0  0  0  0  0  0  0  0  0  0  0
    3.8338    0.5348   -0.5581 N   0  0  0  0  0  0  0  0  0  0  0  0
    2.7161    1.3559   -1.0335 C   0  0  1  0  0  0  0  0  0  0  0  0
    2.7121    1.4165   -2.5617 C   0  0  0  0  0  0  0  0  0  0  0  0
    1.7175    2.7959   -3.2142 S   0  0  0  0  0  0  0  0  0  0  0  0
    1.4545    0.6418   -0.4836 C   0  0  0  0  0  0  0  0  0  0  0  0
    1.5151   -0.4770    0.0385 O   0  0  0  0  0  0  0  0  0  0  0  0
    0.2786    1.3318   -0.6005 N   0  0  0  0  0  0  0  0  0  0  0  0
   -1.0135    0.7673   -0.2041 C   0  0  2  0  0  0  0  0  0  0  0  0
   -2.1247    1.6270   -0.8439 C   0  0  0  0  0  0  0  0  0  0  0  0
   -1.8721    2.6405   -1.4939 O   0  0  0  0  0  0  0  0  0  0  0  0
   -3.4034    1.1538   -0.6504 N   0  0  0  0  0  0  0  0  0  0  0  0
   -4.5726    1.9533   -1.0348 C   0  0  1  0  0  0  0  0  0  0  0  0
   -5.7666    1.0331   -1.3160 C   0  0  0  0  0  0  0  0  0  0  0  0
   -6.9714    1.7468   -1.8809 C   0  0  0  0  0  0  0  0  0  0  0  0
   -8.1111    1.9554   -1.0901 C   0  0  0  0  0  0  0  0  0  0  0  0
   -9.2230    2.6224   -1.6099 C   0  0  0  0  0  0  0  0  0  0  0  0
   -9.1938    3.0815   -2.9223 C   0  0  0  0  0  0  0  0  0  0  0  0
  -10.2566    3.7367   -3.4700 O   0  0  0  0  0  0  0  0  0  0  0  0
   -8.0738    2.8843   -3.7200 C   0  0  0  0  0  0  0  0  0  0  0  0
   -6.9631    2.2173   -3.2017 C   0  0  0  0  0  0  0  0  0  0  0  0
   -4.8981    2.8874    0.1297 C   0  0  0  0  0  0  0  0  0  0  0  0
   -4.8550    2.5989    1.3179 O   0  0  0  0  0  0  0  0  0  0  0  0
   -5.2717    4.1215   -0.2598 O   0  0  0  0  0  0  0  0  0  0  0  0
   -1.1842    0.6536    1.3284 C   0  0  1  0  0  0  0  0  0  0  0  0
   -1.1775    1.9995    2.0474 C   0  0  0  0  0  0  0  0  0  0  0  0
   -2.4077   -0.0349    1.6304 O   0  0  0  0  0  0  0  0  0  0  0  0
    6.3720   -0.8454    0.8891 C   0  0  0  0  0  0  0  0  0  0  0  0
    6.4210   -1.2878   -0.5757 C   0  0  0  0  0  0  0  0  0  0  0  0
    7.3888    0.2747    1.1303 C   0  0  0  0  0  0  0  0  0  0  0  0
    4.8231   -5.2708    1.2693 H   0  0  0  0  0  0  0  0  0  0  0  0
    3.4055   -5.9345    0.4380 H   0  0  0  0  0  0  0  0  0  0  0  0
    4.0799   -6.7658    1.8427 H   0  0  0  0  0  0  0  0  0  0  0  0
    3.4402   -4.9491    3.3398 H   0  0  0  0  0  0  0  0  0  0  0  0
    0.9694   -5.2006    3.2375 H   0  0  0  0  0  0  0  0  0  0  0  0
    1.8060   -6.7331    2.9598 H   0  0  0  0  0  0  0  0  0  0  0  0
    1.0933   -5.8603    1.5959 H   0  0  0  0  0  0  0  0  0  0  0  0
    1.9889   -3.0628    2.5771 H   0  0  0  0  0  0  0  0  0  0  0  0
    2.8527   -3.6509   -0.1528 H   0  0  0  0  0  0  0  0  0  0  0  0
    1.7578   -2.5352    0.3370 H   0  0  0  0  0  0  0  0  0  0  0  0
    3.0043   -1.1873    1.0345 H   0  0  0  0  0  0  0  0  0  0  0  0
    5.0125   -0.2085    2.4650 H   0  0  0  0  0  0  0  0  0  0  0  0
    3.7534   -0.4574   -0.7631 H   0  0  0  0  0  0  0  0  0  0  0  0
    2.7849    2.3523   -0.5827 H   0  0  0  0  0  0  0  0  0  0  0  0
    2.3234    0.4850   -2.9878 H   0  0  0  0  0  0  0  0  0  0  0  0
    3.7314    1.5498   -2.9404 H   0  0  0  0  0  0  0  0  0  0  0  0
    2.5180    3.7866   -2.7884 H   0  0  0  0  0  0  0  0  0  0  0  0
    0.2335    2.1617   -1.1948 H   0  0  0  0  0  0  0  0  0  0  0  0
   -1.0896   -0.2314   -0.6538 H   0  0  0  0  0  0  0  0  0  0  0  0
   -3.5104    0.5530    0.1715 H   0  0  0  0  0  0  0  0  0  0  0  0
   -4.3091    2.5537   -1.9129 H   0  0  0  0  0  0  0  0  0  0  0  0
   -5.4708    0.2507   -2.0282 H   0  0  0  0  0  0  0  0  0  0  0  0
   -6.0524    0.4965   -0.4009 H   0  0  0  0  0  0  0  0  0  0  0  0
   -8.1421    1.5996   -0.0622 H   0  0  0  0  0  0  0  0  0  0  0  0
  -10.0945    2.7720   -0.9807 H   0  0  0  0  0  0  0  0  0  0  0  0
  -10.9604    3.7957   -2.8038 H   0  0  0  0  0  0  0  0  0  0  0  0
   -8.0648    3.2489   -4.7433 H   0  0  0  0  0  0  0  0  0  0  0  0
   -6.0931    2.0687   -3.8378 H   0  0  0  0  0  0  0  0  0  0  0  0
   -5.4425    4.6091    0.5717 H   0  0  0  0  0  0  0  0  0  0  0  0
   -0.3743    0.0396    1.7376 H   0  0  0  0  0  0  0  0  0  0  0  0
   -0.2520    2.5517    1.8602 H   0  0  0  0  0  0  0  0  0  0  0  0
   -1.2748    1.8507    3.1285 H   0  0  0  0  0  0  0  0  0  0  0  0
   -2.0263    2.6210    1.7458 H   0  0  0  0  0  0  0  0  0  0  0  0
   -2.4564   -0.1186    2.6016 H   0  0  0  0  0  0  0  0  0  0  0  0
    6.7085   -1.7041    1.4828 H   0  0  0  0  0  0  0  0  0  0  0  0
    5.6954   -2.0815   -0.7791 H   0  0  0  0  0  0  0  0  0  0  0  0
    7.4136   -1.6838   -0.8183 H   0  0  0  0  0  0  0  0  0  0  0  0
    6.2295   -0.4565   -1.2608 H   0  0  0  0  0  0  0  0  0  0  0  0
    7.1755    1.1550    0.5152 H   0  0  0  0  0  0  0  0  0  0  0  0
    7.3873    0.5824    2.1812 H   0  0  0  0  0  0  0  0  0  0  0  0
    8.4010   -0.0647    0.8849 H   0  0  0  0  0  0  0  0  0  0  0  0
  1  2  1  0
  2  3  1  0
  2  4  1  0
  4  5  1  0
  4  6  1  0
  6  7  2  0
  6  8  1  0
  8  9  1  0
  9 10  1  0
 10 11  2  0
 10 12  1  0
 12 13  1  0
 13 14  1  0
 14 15  1  0
 13 16  1  0
 16 17  2  0
 16 18  1  0
 18 19  1  0
 19 20  1  0
 20 21  2  0
 20 22  1  0
 22 23  1  0
 23 24  1  0
 24 25  1  0
 25 26  2  0
 26 27  1  0
 27 28  2  0
 28 29  1  0
 28 30  1  0
 30 31  2  0
 23 32  1  0
 32 33  2  0
 32 34  1  0
 19 35  1  0
 35 36  1  0
 35 37  1  0
  9 38  1  0
 38 39  1  0
 38 40  1  0
 31 25  1  0
  1 41  1  0
  1 42  1  0
  1 43  1  0
  2 44  1  0
  3 45  1  0
  3 46  1  0
  3 47  1  0
  4 48  1  1
  5 49  1  0
  5 50  1  0
  8 51  1  0
  9 52  1  1
 12 53  1  0
 13 54  1  1
 14 55  1  0
 14 56  1  0
 15 57  1  0
 18 58  1  0
 19 59  1  6
 22 60  1  0
 23 61  1  6
 24 62  1  0
 24 63  1  0
 26 64  1  0
 27 65  1  0
 29 66  1  0
 30 67  1  0
 31 68  1  0
 34 69  1  0
 35 70  1  1
 36 71  1  0
 36 72  1  0
 36 73  1  0
 37 74  1  0
 38 75  1  0
 39 76  1  0
 39 77  1  0
 39 78  1  0
 40 79  1  0
 40 80  1  0
 40 81  1  0
M  END
$$$$
VVCTY.sdf
     RDKit          3D

 81 81  0  0  0  0  0  0  0  0999 V2000
    4.1938   -5.7719    0.6409 C   0  0  0  0  0  0  0  0  0  0  0  0
    2.6955   -5.4365    0.6352 C   0  0  0  0  0  0  0  0  0  0  0  0
    1.9173   -6.6804    1.0852 C   0  0  0  0  0  0  0  0  0  0  0  0
    2.4006   -4.2089    1.5303 C   0  0  2  0  0  0  0  0  0  0  0  0
    0.9464   -3.9664    1.6524 N   0  0  0  0  0  0  0  0  0  0  0  0
    3.0460   -2.9070    0.9854 C   0  0  0  0  0  0  0  0  0  0  0  0
    3.4418   -2.7711   -0.1661 O   0  0  0  0  0  0  0  0  0  0  0  0
    3.0366   -1.8764    1.9117 N   0  0  0  0  0  0  0  0  0  0  0  0
    3.7415   -0.6031    1.7088 C   0  0  2  0  0  0  0  0  0  0  0  0
    3.2731    0.2105    0.4723 C   0  0  0  0  0  0  0  0  0  0  0  0
    3.9236    1.1301   -0.0187 O   0  0  0  0  0  0  0  0  0  0  0  0
    1.9898   -0.0755    0.0703 N   0  0  0  0  0  0  0  0  0  0  0  0
    1.2924    0.6917   -0.9463 C   0  0  1  0  0  0  0  0  0  0  0  0
    0.3118   -0.1751   -1.7496 C   0  0  0  0  0  0  0  0  0  0  0  0
   -0.7921   -1.2214   -0.7217 S   0  0  0  0  0  0  0  0  0  0  0  0
    0.5415    1.8575   -0.2829 C   0  0  0  0  0  0  0  0  0  0  0  0
    0.0887    1.8029    0.8616 O   0  0  0  0  0  0  0  0  0  0  0  0
    0.3043    2.9399   -1.0939 N   0  0  0  0  0  0  0  0  0  0  0  0
   -0.4122    4.1343   -0.6315 C   0  0  2  0  0  0  0  0  0  0  0  0
   -1.9275    3.8834   -0.7810 C   0  0  0  0  0  0  0  0  0  0  0  0
   -2.6442    4.5323   -1.5404 O   0  0  0  0  0  0  0  0  0  0  0  0
   -2.4128    2.8627    0.0034 N   0  0  0  0  0  0  0  0  0  0  0  0
   -3.8027    2.4051   -0.0607 C   0  0  1  0  0  0  0  0  0  0  0  0
   -4.0752    1.6212   -1.3537 C   0  0  0  0  0  0  0  0  0  0  0  0
   -5.5317    1.2761   -1.5523 C   0  0  0  0  0  0  0  0  0  0  0  0
   -5.9892   -0.0318   -1.3392 C   0  0  0  0  0  0  0  0  0  0  0  0
   -7.3391   -0.3417   -1.5089 C   0  0  0  0  0  0  0  0  0  0  0  0
   -8.2318    0.6516   -1.8917 C   0  0  0  0  0  0  0  0  0  0  0  0
   -9.5414    0.3040   -2.0449 O   0  0  0  0  0  0  0  0  0  0  0  0
   -7.7976    1.9546   -2.1103 C   0  0  0  0  0  0  0  0  0  0  0  0
   -6.4468    2.2658   -1.9405 C   0  0  0  0  0  0  0  0  0  0  0  0
   -4.0302    1.4993    1.1438 C   0  0  0  0  0  0  0  0  0  0  0  0
   -3.2506    0.6509    1.5547 O   0  0  0  0  0  0  0  0  0  0  0  0
   -5.2070    1.7095    1.7630 O   0  0  0  0  0  0  0  0  0  0  0  0
    0.0058    5.3738   -1.4482 C   0  0  1  0  0  0  0  0  0  0  0  0
    1.4374    5.7983   -1.1416 C   0  0  0  0  0  0  0  0  0  0  0  0
   -0.0682    5.0827   -2.8523 O   0  0  0  0  0  0  0  0  0  0  0  0
    5.2811   -0.6618    1.8602 C   0  0  0  0  0  0  0  0  0  0  0  0
    6.0012   -1.4491    0.7653 C   0  0  0  0  0  0  0  0  0  0  0  0
    5.6866   -1.1996    3.2365 C   0  0  0  0  0  0  0  0  0  0  0  0
    4.3975   -6.6442    0.0102 H   0  0  0  0  0  0  0  0  0  0  0  0
    4.5437   -6.0000    1.6536 H   0  0  0  0  0  0  0  0  0  0  0  0
    4.7970   -4.9456    0.2543 H   0  0  0  0  0  0  0  0  0  0  0  0
    2.4046   -5.2135   -0.3999 H   0  0  0  0  0  0  0  0  0  0  0  0
    2.1851   -7.5486    0.4729 H   0  0  0  0  0  0  0  0  0  0  0  0
    0.8370   -6.5364    0.9831 H   0  0  0  0  0  0  0  0  0  0  0  0
    2.1328   -6.9256    2.1308 H   0  0  0  0  0  0  0  0  0  0  0  0
    2.8021   -4.3912    2.5350 H   0  0  0  0  0  0  0  0  0  0  0  0
    0.5544   -3.8557    0.7132 H   0  0  0  0  0  0  0  0  0  0  0  0
    0.7780   -3.0766    2.1189 H   0  0  0  0  0  0  0  0  0  0  0  0
    2.8516   -2.1373    2.8726 H   0  0  0  0  0  0  0  0  0  0  0  0
    3.3781    0.0102    2.5476 H   0  0  0  0  0  0  0  0  0  0  0  0
    1.4440   -0.6996    0.6530 H   0  0  0  0  0  0  0  0  0  0  0  0
    2.0332    1.1201   -1.6326 H   0  0  0  0  0  0  0  0  0  0  0  0
    0.8757   -0.8598   -2.3922 H   0  0  0  0  0  0  0  0  0  0  0  0
   -0.3187    0.4441   -2.3962 H   0  0  0  0  0  0  0  0  0  0  0  0
   -1.3159   -0.2376    0.0319 H   0  0  0  0  0  0  0  0  0  0  0  0
    0.6655    2.9772   -2.0432 H   0  0  0  0  0  0  0  0  0  0  0  0
   -0.2079    4.2981    0.4338 H   0  0  0  0  0  0  0  0  0  0  0  0
   -1.7534    2.3377    0.5852 H   0  0  0  0  0  0  0  0  0  0  0  0
   -4.4414    3.2924    0.0185 H   0  0  0  0  0  0  0  0  0  0  0  0
   -3.4747    0.7022   -1.3704 H   0  0  0  0  0  0  0  0  0  0  0  0
   -3.7431    2.1938   -2.2292 H   0  0  0  0  0  0  0  0  0  0  0  0
   -5.3008   -0.8198   -1.0405 H   0  0  0  0  0  0  0  0  0  0  0  0
   -7.6928   -1.3556   -1.3445 H   0  0  0  0  0  0  0  0  0  0  0  0
  -10.0383    1.0904   -2.3234 H   0  0  0  0  0  0  0  0  0  0  0  0
   -8.4881    2.7360   -2.4109 H   0  0  0  0  0  0  0  0  0  0  0  0
   -6.1105    3.2865   -2.1148 H   0  0  0  0  0  0  0  0  0  0  0  0
   -5.2313    1.0501    2.4874 H   0  0  0  0  0  0  0  0  0  0  0  0
   -0.6597    6.2205   -1.2418 H   0  0  0  0  0  0  0  0  0  0  0  0
    2.1548    5.0173   -1.4159 H   0  0  0  0  0  0  0  0  0  0  0  0
    1.5627    6.0358   -0.0809 H   0  0  0  0  0  0  0  0  0  0  0  0
    1.7033    6.6835   -1.7297 H   0  0  0  0  0  0  0  0  0  0  0  0
   -1.0232    5.0649   -3.0702 H   0  0  0  0  0  0  0  0  0  0  0  0
    5.6541    0.3699    1.7988 H   0  0  0  0  0  0  0  0  0  0  0  0
    5.6924   -1.1244   -0.2328 H   0  0  0  0  0  0  0  0  0  0  0  0
    7.0836   -1.2937    0.8385 H   0  0  0  0  0  0  0  0  0  0  0  0
    5.8266   -2.5252    0.8550 H   0  0  0  0  0  0  0  0  0  0  0  0
    5.2179   -0.6173    4.0367 H   0  0  0  0  0  0  0  0  0  0  0  0
    5.3961   -2.2480    3.3618 H   0  0  0  0  0  0  0  0  0  0  0  0
    6.7718   -1.1354    3.3715 H   0  0  0  0  0  0  0  0  0  0  0  0
  1  2  1  0
  2  3  1  0
  2  4  1  0
  4  5  1  0
  4  6  1  0
  6  7  2  0
  6  8  1  0
  8  9  1  0
  9 10  1  0
 10 11  2  0
 10 12  1  0
 12 13  1  0
 13 14  1  0
 14 15  1  0
 13 16  1  0
 16 17  2  0
 16 18  1  0
 18 19  1  0
 19 20  1  0
 20 21  2  0
 20 22  1  0
 22 23  1  0
 23 24  1  0
 24 25  1  0
 25 26  2  0
 26 27  1  0
 27 28  2  0
 28 29  1  0
 28 30  1  0
 30 31  2  0
 23 32  1  0
 32 33  2  0
 32 34  1  0
 19 35  1  0
 35 36  1  0
 35 37  1  0
  9 38  1  0
 38 39  1  0
 38 40  1  0
 31 25  1  0
  1 41  1  0
  1 42  1  0
  1 43  1  0
  2 44  1  0
  3 45  1  0
  3 46  1  0
  3 47  1  0
  4 48  1  1
  5 49  1  0
  5 50  1  0
  8 51  1  0
  9 52  1  1
 12 53  1  0
 13 54  1  6
 14 55  1  0
 14 56  1  0
 15 57  1  0
 18 58  1  0
 19 59  1  1
 22 60  1  0
 23 61  1  1
 24 62  1  0
 24 63  1  0
 26 64  1  0
 27 65  1  0
 29 66  1  0
 30 67  1  0
 31 68  1  0
 34 69  1  0
 35 70  1  6
 36 71  1  0
 36 72  1  0
 36 73  1  0
 37 74  1  0
 38 75  1  0
 39 76  1  0
 39 77  1  0
 39 78  1  0
 40 79  1  0
 40 80  1  0
 40 81  1  0
M  END
$$$$
VVCTY.sdf
     RDKit          3D

 81 81  0  0  0  0  0  0  0  0999 V2000
    2.4987   -5.3828    0.4521 C   0  0  0  0  0  0  0  0  0  0  0  0
    3.1782   -5.9676    1.6966 C   0  0  0  0  0  0  0  0  0  0  0  0
    3.2902   -7.4885    1.5321 C   0  0  0  0  0  0  0  0  0  0  0  0
    4.5578   -5.3145    1.9460 C   0  0  2  0  0  0  0  0  0  0  0  0
    5.2189   -5.8926    3.1367 N   0  0  0  0  0  0  0  0  0  0  0  0
    4.4083   -3.7924    2.1828 C   0  0  0  0  0  0  0  0  0  0  0  0
    3.8959   -3.3302    3.2001 O   0  0  0  0  0  0  0  0  0  0  0  0
    4.9406   -3.0056    1.1831 N   0  0  0  0  0  0  0  0  0  0  0  0
    4.6761   -1.5670    1.1557 C   0  0  2  0  0  0  0  0  0  0  0  0
    3.4679   -1.4045    0.2108 C   0  0  0  0  0  0  0  0  0  0  0  0
    3.3713   -2.0305   -0.8455 O   0  0  0  0  0  0  0  0  0  0  0  0
    2.5272   -0.4916    0.6163 N   0  0  0  0  0  0  0  0  0  0  0  0
    1.2991   -0.2684   -0.1391 C   0  0  1  0  0  0  0  0  0  0  0  0
    0.2895   -1.4229   -0.0279 C   0  0  0  0  0  0  0  0  0  0  0  0
   -0.1628   -1.8712    1.6870 S   0  0  0  0  0  0  0  0  0  0  0  0
    0.6738    1.0609    0.3130 C   0  0  0  0  0  0  0  0  0  0  0  0
    0.9845    1.6245    1.3641 O   0  0  0  0  0  0  0  0  0  0  0  0
   -0.2850    1.5783   -0.5210 N   0  0  0  0  0  0  0  0  0  0  0  0
   -0.9552    2.8551   -0.2449 C   0  0  2  0  0  0  0  0  0  0  0  0
   -2.2591    2.8287   -1.0577 C   0  0  0  0  0  0  0  0  0  0  0  0
   -2.3535    2.2083   -2.1169 O   0  0  0  0  0  0  0  0  0  0  0  0
   -3.2983    3.5548   -0.5315 N   0  0  0  0  0  0  0  0  0  0  0  0
   -4.6152    3.6091   -1.1823 C   0  0  1  0  0  0  0  0  0  0  0  0
   -5.4336    2.3468   -0.8778 C   0  0  0  0  0  0  0  0  0  0  0  0
   -6.6882    2.2285   -1.7090 C   0  0  0  0  0  0  0  0  0  0  0  0
   -6.6066    1.8821   -3.0661 C   0  0  0  0  0  0  0  0  0  0  0  0
   -7.7623    1.7837   -3.8438 C   0  0  0  0  0  0  0  0  0  0  0  0
   -9.0008    2.0316   -3.2620 C   0  0  0  0  0  0  0  0  0  0  0  0
  -10.1547    1.9479   -3.9835 O   0  0  0  0  0  0  0  0  0  0  0  0
   -9.1009    2.3733   -1.9191 C   0  0  0  0  0  0  0  0  0  0  0  0
   -7.9466    2.4715   -1.1411 C   0  0  0  0  0  0  0  0  0  0  0  0
   -5.3182    4.8436   -0.6303 C   0  0  0  0  0  0  0  0  0  0  0  0
   -5.2095    5.2653    0.5133 O   0  0  0  0  0  0  0  0  0  0  0  0
   -6.0940    5.4753   -1.5289 O   0  0  0  0  0  0  0  0  0  0  0  0
   -0.0821    4.0699   -0.6436 C   0  0  1  0  0  0  0  0  0  0  0  0
   -0.6514    5.3985   -0.1583 C   0  0  0  0  0  0  0  0  0  0  0  0
    1.2480    3.9762   -0.1139 O   0  0  0  0  0  0  0  0  0  0  0  0
    5.8967   -0.7820    0.6289 C   0  0  0  0  0  0  0  0  0  0  0  0
    5.6232    0.7250    0.5711 C   0  0  0  0  0  0  0  0  0  0  0  0
    7.1311   -1.0315    1.5043 C   0  0  0  0  0  0  0  0  0  0  0  0
    2.2783   -4.3195    0.5830 H   0  0  0  0  0  0  0  0  0  0  0  0
    3.1306   -5.4952   -0.4354 H   0  0  0  0  0  0  0  0  0  0  0  0
    1.5460   -5.8865    0.2554 H   0  0  0  0  0  0  0  0  0  0  0  0
    2.5217   -5.7677    2.5544 H   0  0  0  0  0  0  0  0  0  0  0  0
    3.6703   -7.9634    2.4420 H   0  0  0  0  0  0  0  0  0  0  0  0
    2.3096   -7.9297    1.3229 H   0  0  0  0  0  0  0  0  0  0  0  0
    3.9603   -7.7485    0.7054 H   0  0  0  0  0  0  0  0  0  0  0  0
    5.2132   -5.4894    1.0846 H   0  0  0  0  0  0  0  0  0  0  0  0
    4.6348   -5.6634    3.9467 H   0  0  0  0  0  0  0  0  0  0  0  0
    6.0899   -5.3867    3.3015 H   0  0  0  0  0  0  0  0  0  0  0  0
    5.0482   -3.4382    0.2711 H   0  0  0  0  0  0  0  0  0  0  0  0
    4.4071   -1.2212    2.1603 H   0  0  0  0  0  0  0  0  0  0  0  0
    2.5457   -0.1403    1.5702 H   0  0  0  0  0  0  0  0  0  0  0  0
    1.5844   -0.1531   -1.1928 H   0  0  0  0  0  0  0  0  0  0  0  0
   -0.6363   -1.1769   -0.5582 H   0  0  0  0  0  0  0  0  0  0  0  0
    0.6989   -2.3255   -0.4930 H   0  0  0  0  0  0  0  0  0  0  0  0
   -0.5931   -0.6604    2.0730 H   0  0  0  0  0  0  0  0  0  0  0  0
   -0.4231    1.1945   -1.4530 H   0  0  0  0  0  0  0  0  0  0  0  0
   -1.1822    2.8787    0.8276 H   0  0  0  0  0  0  0  0  0  0  0  0
   -3.2315    3.9571    0.4001 H   0  0  0  0  0  0  0  0  0  0  0  0
   -4.4443    3.7401   -2.2571 H   0  0  0  0  0  0  0  0  0  0  0  0
   -4.8286    1.4475   -1.0537 H   0  0  0  0  0  0  0  0  0  0  0  0
   -5.6924    2.3143    0.1893 H   0  0  0  0  0  0  0  0  0  0  0  0
   -5.6393    1.6844   -3.5254 H   0  0  0  0  0  0  0  0  0  0  0  0
   -7.6755    1.5146   -4.8916 H   0  0  0  0  0  0  0  0  0  0  0  0
   -9.9320    1.6907   -4.8931 H   0  0  0  0  0  0  0  0  0  0  0  0
  -10.0761    2.5610   -1.4787 H   0  0  0  0  0  0  0  0  0  0  0  0
   -8.0412    2.7381   -0.0909 H   0  0  0  0  0  0  0  0  0  0  0  0
   -6.4963    6.2260   -1.0444 H   0  0  0  0  0  0  0  0  0  0  0  0
    0.0233    4.1094   -1.7341 H   0  0  0  0  0  0  0  0  0  0  0  0
   -1.6020    5.6385   -0.6412 H   0  0  0  0  0  0  0  0  0  0  0  0
   -0.7995    5.3864    0.9271 H   0  0  0  0  0  0  0  0  0  0  0  0
    0.0495    6.2139   -0.3694 H   0  0  0  0  0  0  0  0  0  0  0  0
    1.2220    3.4348    0.7027 H   0  0  0  0  0  0  0  0  0  0  0  0
    6.1333   -1.1195   -0.3890 H   0  0  0  0  0  0  0  0  0  0  0  0
    5.3213    1.1115    1.5504 H   0  0  0  0  0  0  0  0  0  0  0  0
    4.8329    0.9601   -0.1484 H   0  0  0  0  0  0  0  0  0  0  0  0
    6.5187    1.2707    0.2542 H   0  0  0  0  0  0  0  0  0  0  0  0
    6.9453   -0.7379    2.5431 H   0  0  0  0  0  0  0  0  0  0  0  0
    7.4198   -2.0874    1.4954 H   0  0  0  0  0  0  0  0  0  0  0  0
    7.9893   -0.4571    1.1389 H   0  0  0  0  0  0  0  0  0  0  0  0
  1  2  1  0
  2  3  1  0
  2  4  1  0
  4  5  1  0
  4  6  1  0
  6  7  2  0
  6  8  1  0
  8  9  1  0
  9 10  1  0
 10 11  2  0
 10 12  1  0
 12 13  1  0
 13 14  1  0
 14 15  1  0
 13 16  1  0
 16 17  2  0
 16 18  1  0
 18 19  1  0
 19 20  1  0
 20 21  2  0
 20 22  1  0
 22 23  1  0
 23 24  1  0
 24 25  1  0
 25 26  2  0
 26 27  1  0
 27 28  2  0
 28 29  1  0
 28 30  1  0
 30 31  2  0
 23 32  1  0
 32 33  2  0
 32 34  1  0
 19 35  1  0
 35 36  1  0
 35 37  1  0
  9 38  1  0
 38 39  1  0
 38 40  1  0
 31 25  1  0
  1 41  1  0
  1 42  1  0
  1 43  1  0
  2 44  1  0
  3 45  1  0
  3 46  1  0
  3 47  1  0
  4 48  1  6
  5 49  1  0
  5 50  1  0
  8 51  1  0
  9 52  1  1
 12 53  1  0
 13 54  1  6
 14 55  1  0
 14 56  1  0
 15 57  1  0
 18 58  1  0
 19 59  1  1
 22 60  1  0
 23 61  1  6
 24 62  1  0
 24 63  1  0
 26 64  1  0
 27 65  1  0
 29 66  1  0
 30 67  1  0
 31 68  1  0
 34 69  1  0
 35 70  1  6
 36 71  1  0
 36 72  1  0
 36 73  1  0
 37 74  1  0
 38 75  1  0
 39 76  1  0
 39 77  1  0
 39 78  1  0
 40 79  1  0
 40 80  1  0
 40 81  1  0
M  END
$$$$
VVCTY.sdf
     RDKit          3D

 81 81  0  0  0  0  0  0  0  0999 V2000
    6.2324   -7.2418    1.4262 C   0  0  0  0  0  0  0  0  0  0  0  0
    5.9198   -5.8227    1.9126 C   0  0  0  0  0  0  0  0  0  0  0  0
    6.9992   -5.3664    2.9008 C   0  0  0  0  0  0  0  0  0  0  0  0
    5.7277   -4.8528    0.7229 C   0  0  2  0  0  0  0  0  0  0  0  0
    6.9652   -4.6534   -0.0622 N   0  0  0  0  0  0  0  0  0  0  0  0
    5.1791   -3.4780    1.1873 C   0  0  0  0  0  0  0  0  0  0  0  0
    5.8634   -2.4583    1.1464 O   0  0  0  0  0  0  0  0  0  0  0  0
    3.8764   -3.5238    1.6512 N   0  0  0  0  0  0  0  0  0  0  0  0
    3.0674   -2.3173    1.8840 C   0  0  2  0  0  0  0  0  0  0  0  0
    2.5651   -1.8200    0.4991 C   0  0  0  0  0  0  0  0  0  0  0  0
    3.0958   -2.1258   -0.5684 O   0  0  0  0  0  0  0  0  0  0  0  0
    1.4328   -1.0447    0.5348 N   0  0  0  0  0  0  0  0  0  0  0  0
    0.7727   -0.5692   -0.6785 C   0  0  1  0  0  0  0  0  0  0  0  0
    0.0481   -1.6812   -1.4550 C   0  0  0  0  0  0  0  0  0  0  0  0
   -1.1080   -2.6708   -0.4380 S   0  0  0  0  0  0  0  0  0  0  0  0
   -0.1931    0.5637   -0.2880 C   0  0  0  0  0  0  0  0  0  0  0  0
   -0.5643    0.7416    0.8728 O   0  0  0  0  0  0  0  0  0  0  0  0
   -0.6033    1.3648   -1.3291 N   0  0  0  0  0  0  0  0  0  0  0  0
   -1.7319    2.2803   -1.1695 C   0  0  2  0  0  0  0  0  0  0  0  0
   -3.0096    1.5032   -1.5510 C   0  0  0  0  0  0  0  0  0  0  0  0
   -2.9839    0.4202   -2.1368 O   0  0  0  0  0  0  0  0  0  0  0  0
   -4.1962    2.1524   -1.2632 N   0  0  0  0  0  0  0  0  0  0  0  0
   -5.4136    1.7498   -1.9778 C   0  0  1  0  0  0  0  0  0  0  0  0
   -6.6930    2.1906   -1.2490 C   0  0  0  0  0  0  0  0  0  0  0  0
   -6.7673    3.6715   -0.9421 C   0  0  0  0  0  0  0  0  0  0  0  0
   -7.2670    4.5762   -1.8899 C   0  0  0  0  0  0  0  0  0  0  0  0
   -7.3016    5.9454   -1.6148 C   0  0  0  0  0  0  0  0  0  0  0  0
   -6.8392    6.4092   -0.3882 C   0  0  0  0  0  0  0  0  0  0  0  0
   -6.8511    7.7364   -0.0788 O   0  0  0  0  0  0  0  0  0  0  0  0
   -6.3500    5.5277    0.5672 C   0  0  0  0  0  0  0  0  0  0  0  0
   -6.3165    4.1603    0.2936 C   0  0  0  0  0  0  0  0  0  0  0  0
   -5.3291    2.3101   -3.4050 C   0  0  0  0  0  0  0  0  0  0  0  0
   -4.4056    2.9659   -3.8729 O   0  0  0  0  0  0  0  0  0  0  0  0
   -6.3840    1.9772   -4.1758 O   0  0  0  0  0  0  0  0  0  0  0  0
   -1.5856    3.5204   -2.0798 C   0  0  1  0  0  0  0  0  0  0  0  0
   -0.3547    4.3457   -1.7209 C   0  0  0  0  0  0  0  0  0  0  0  0
   -1.4661    3.1366   -3.4556 O   0  0  0  0  0  0  0  0  0  0  0  0
    3.7308   -1.2351    2.7766 C   0  0  0  0  0  0  0  0  0  0  0  0
    4.2660   -1.8462    4.0807 C   0  0  0  0  0  0  0  0  0  0  0  0
    2.7749   -0.0938    3.1474 C   0  0  0  0  0  0  0  0  0  0  0  0
    5.4541   -7.5990    0.7436 H   0  0  0  0  0  0  0  0  0  0  0  0
    6.2775   -7.9376    2.2710 H   0  0  0  0  0  0  0  0  0  0  0  0
    7.1933   -7.2894    0.9032 H   0  0  0  0  0  0  0  0  0  0  0  0
    4.9756   -5.8739    2.4705 H   0  0  0  0  0  0  0  0  0  0  0  0
    7.0360   -6.0408    3.7635 H   0  0  0  0  0  0  0  0  0  0  0  0
    6.7928   -4.3611    3.2802 H   0  0  0  0  0  0  0  0  0  0  0  0
    7.9943   -5.3622    2.4443 H   0  0  0  0  0  0  0  0  0  0  0  0
    4.9814   -5.2749    0.0374 H   0  0  0  0  0  0  0  0  0  0  0  0
    7.5928   -4.0793    0.5089 H   0  0  0  0  0  0  0  0  0  0  0  0
    6.7334   -4.0249   -0.8364 H   0  0  0  0  0  0  0  0  0  0  0  0
    3.3476   -4.3345    1.3555 H   0  0  0  0  0  0  0  0  0  0  0  0
    2.1794   -2.6952    2.4096 H   0  0  0  0  0  0  0  0  0  0  0  0
    0.8980   -0.9419    1.3922 H   0  0  0  0  0  0  0  0  0  0  0  0
    1.5481   -0.1348   -1.3225 H   0  0  0  0  0  0  0  0  0  0  0  0
   -0.5200   -1.2643   -2.2925 H   0  0  0  0  0  0  0  0  0  0  0  0
    0.7761   -2.3818   -1.8764 H   0  0  0  0  0  0  0  0  0  0  0  0
   -1.6552   -3.3503   -1.4567 H   0  0  0  0  0  0  0  0  0  0  0  0
   -0.4491    1.0564   -2.2833 H   0  0  0  0  0  0  0  0  0  0  0  0
   -1.8166    2.5856   -0.1202 H   0  0  0  0  0  0  0  0  0  0  0  0
   -4.1415    3.1299   -1.0023 H   0  0  0  0  0  0  0  0  0  0  0  0
   -5.4131    0.6566   -2.0686 H   0  0  0  0  0  0  0  0  0  0  0  0
   -7.5807    1.9054   -1.8280 H   0  0  0  0  0  0  0  0  0  0  0  0
   -6.7705    1.6373   -0.3034 H   0  0  0  0  0  0  0  0  0  0  0  0
   -7.6404    4.2228   -2.8489 H   0  0  0  0  0  0  0  0  0  0  0  0
   -7.6918    6.6282   -2.3631 H   0  0  0  0  0  0  0  0  0  0  0  0
   -7.2460    8.2265   -0.8186 H   0  0  0  0  0  0  0  0  0  0  0  0
   -6.0015    5.9045    1.5250 H   0  0  0  0  0  0  0  0  0  0  0  0
   -5.9380    3.4797    1.0542 H   0  0  0  0  0  0  0  0  0  0  0  0
   -6.1623    2.3297   -5.0642 H   0  0  0  0  0  0  0  0  0  0  0  0
   -2.4646    4.1694   -1.9945 H   0  0  0  0  0  0  0  0  0  0  0  0
   -0.2995    5.2365   -2.3563 H   0  0  0  0  0  0  0  0  0  0  0  0
    0.5699    3.7850   -1.8952 H   0  0  0  0  0  0  0  0  0  0  0  0
   -0.3828    4.6668   -0.6753 H   0  0  0  0  0  0  0  0  0  0  0  0
   -2.3768    3.0258   -3.8055 H   0  0  0  0  0  0  0  0  0  0  0  0
    4.5696   -0.7754    2.2427 H   0  0  0  0  0  0  0  0  0  0  0  0
    4.7173   -1.0754    4.7152 H   0  0  0  0  0  0  0  0  0  0  0  0
    3.4616   -2.3233    4.6512 H   0  0  0  0  0  0  0  0  0  0  0  0
    5.0388   -2.5963    3.8922 H   0  0  0  0  0  0  0  0  0  0  0  0
    3.2349    0.5780    3.8810 H   0  0  0  0  0  0  0  0  0  0  0  0
    1.8447   -0.4760    3.5807 H   0  0  0  0  0  0  0  0  0  0  0  0
    2.5308    0.5207    2.2764 H   0  0  0  0  0  0  0  0  0  0  0  0
  1  2  1  0
  2  3  1  0
  2  4  1  0
  4  5  1  0
  4  6  1  0
  6  7  2  0
  6  8  1  0
  8  9  1  0
  9 10  1  0
 10 11  2  0
 10 12  1  0
 12 13  1  0
 13 14  1  0
 14 15  1  0
 13 16  1  0
 16 17  2  0
 16 18  1  0
 18 19  1  0
 19 20  1  0
 20 21  2  0
 20 22  1  0
 22 23  1  0
 23 24  1  0
 24 25  1  0
 25 26  2  0
 26 27  1  0
 27 28  2  0
 28 29  1  0
 28 30  1  0
 30 31  2  0
 23 32  1  0
 32 33  2  0
 32 34  1  0
 19 35  1  0
 35 36  1  0
 35 37  1  0
  9 38  1  0
 38 39  1  0
 38 40  1  0
 31 25  1  0
  1 41  1  0
  1 42  1  0
  1 43  1  0
  2 44  1  0
  3 45  1  0
  3 46  1  0
  3 47  1  0
  4 48  1  6
  5 49  1  0
  5 50  1  0
  8 51  1  0
  9 52  1  1
 12 53  1  0
 13 54  1  6
 14 55  1  0
 14 56  1  0
 15 57  1  0
 18 58  1  0
 19 59  1  1
 22 60  1  0
 23 61  1  6
 24 62  1  0
 24 63  1  0
 26 64  1  0
 27 65  1  0
 29 66  1  0
 30 67  1  0
 31 68  1  0
 34 69  1  0
 35 70  1  6
 36 71  1  0
 36 72  1  0
 36 73  1  0
 37 74  1  0
 38 75  1  0
 39 76  1  0
 39 77  1  0
 39 78  1  0
 40 79  1  0
 40 80  1  0
 40 81  1  0
M  END
$$$$
VVCTY.sdf
     RDKit          3D

 81 81  0  0  0  0  0  0  0  0999 V2000
    2.9975   -6.8462    2.9446 C   0  0  0  0  0  0  0  0  0  0  0  0
    3.1650   -5.3306    3.0929 C   0  0  0  0  0  0  0  0  0  0  0  0
    4.2135   -5.0285    4.1691 C   0  0  0  0  0  0  0  0  0  0  0  0
    3.4704   -4.6532    1.7365 C   0  0  2  0  0  0  0  0  0  0  0  0
    4.7834   -5.0188    1.1476 N   0  0  0  0  0  0  0  0  0  0  0  0
    3.3391   -3.1103    1.8222 C   0  0  0  0  0  0  0  0  0  0  0  0
    2.5305   -2.5294    2.5421 O   0  0  0  0  0  0  0  0  0  0  0  0
    4.1607   -2.4419    0.9408 N   0  0  0  0  0  0  0  0  0  0  0  0
    4.0774   -1.0005    0.7115 C   0  0  2  0  0  0  0  0  0  0  0  0
    2.9421   -0.7780   -0.3226 C   0  0  0  0  0  0  0  0  0  0  0  0
    3.1096   -0.3063   -1.4442 O   0  0  0  0  0  0  0  0  0  0  0  0
    1.6966   -1.1610    0.1323 N   0  0  0  0  0  0  0  0  0  0  0  0
    0.4899   -0.8818   -0.6305 C   0  0  1  0  0  0  0  0  0  0  0  0
   -0.6394   -1.8719   -0.3257 C   0  0  0  0  0  0  0  0  0  0  0  0
   -0.2025   -3.5968   -0.7376 S   0  0  0  0  0  0  0  0  0  0  0  0
    0.0022    0.5335   -0.2709 C   0  0  0  0  0  0  0  0  0  0  0  0
    0.2373    1.0781    0.8072 O   0  0  0  0  0  0  0  0  0  0  0  0
   -0.7727    1.1382   -1.2299 N   0  0  0  0  0  0  0  0  0  0  0  0
   -1.3153    2.4998   -1.0820 C   0  0  2  0  0  0  0  0  0  0  0  0
   -2.3104    2.6643   -2.2410 C   0  0  0  0  0  0  0  0  0  0  0  0
   -2.1809    2.0535   -3.3021 O   0  0  0  0  0  0  0  0  0  0  0  0
   -3.3473    3.5278   -2.0056 N   0  0  0  0  0  0  0  0  0  0  0  0
   -4.3990    3.7978   -2.9899 C   0  0  1  0  0  0  0  0  0  0  0  0
   -5.3990    2.6376   -3.1403 C   0  0  0  0  0  0  0  0  0  0  0  0
   -6.0986    2.2448   -1.8559 C   0  0  0  0  0  0  0  0  0  0  0  0
   -7.2984    2.8650   -1.4794 C   0  0  0  0  0  0  0  0  0  0  0  0
   -7.9259    2.5193   -0.2819 C   0  0  0  0  0  0  0  0  0  0  0  0
   -7.3601    1.5522    0.5393 C   0  0  0  0  0  0  0  0  0  0  0  0
   -8.0071    1.2477    1.6999 O   0  0  0  0  0  0  0  0  0  0  0  0
   -6.1751    0.9188    0.1817 C   0  0  0  0  0  0  0  0  0  0  0  0
   -5.5467    1.2649   -1.0165 C   0  0  0  0  0  0  0  0  0  0  0  0
   -5.1316    5.0993   -2.6540 C   0  0  0  0  0  0  0  0  0  0  0  0
   -6.0413    5.6038   -3.2932 O   0  0  0  0  0  0  0  0  0  0  0  0
   -4.6852    5.6944   -1.5223 O   0  0  0  0  0  0  0  0  0  0  0  0
   -0.1947    3.5688   -1.0713 C   0  0  1  0  0  0  0  0  0  0  0  0
   -0.6178    4.9642   -1.5147 C   0  0  0  0  0  0  0  0  0  0  0  0
    0.3165    3.7252    0.2623 O   0  0  0  0  0  0  0  0  0  0  0  0
    5.4324   -0.4206    0.2471 C   0  0  0  0  0  0  0  0  0  0  0  0
    6.5836   -0.8603    1.1619 C   0  0  0  0  0  0  0  0  0  0  0  0
    5.3945    1.1133    0.2161 C   0  0  0  0  0  0  0  0  0  0  0  0
    2.2452   -7.0824    2.1848 H   0  0  0  0  0  0  0  0  0  0  0  0
    2.6649   -7.2895    3.8895 H   0  0  0  0  0  0  0  0  0  0  0  0
    3.9352   -7.3351    2.6619 H   0  0  0  0  0  0  0  0  0  0  0  0
    2.2063   -4.9379    3.4579 H   0  0  0  0  0  0  0  0  0  0  0  0
    4.3501   -3.9508    4.3017 H   0  0  0  0  0  0  0  0  0  0  0  0
    5.1857   -5.4692    3.9255 H   0  0  0  0  0  0  0  0  0  0  0  0
    3.8988   -5.4411    5.1341 H   0  0  0  0  0  0  0  0  0  0  0  0
    2.7038   -4.9607    1.0134 H   0  0  0  0  0  0  0  0  0  0  0  0
    4.8401   -6.0343    1.0738 H   0  0  0  0  0  0  0  0  0  0  0  0
    5.5196   -4.7477    1.8012 H   0  0  0  0  0  0  0  0  0  0  0  0
    4.6211   -3.0383    0.2555 H   0  0  0  0  0  0  0  0  0  0  0  0
    3.7727   -0.5156    1.6480 H   0  0  0  0  0  0  0  0  0  0  0  0
    1.6087   -1.3347    1.1349 H   0  0  0  0  0  0  0  0  0  0  0  0
    0.7333   -0.8993   -1.7001 H   0  0  0  0  0  0  0  0  0  0  0  0
   -1.5399   -1.6117   -0.8923 H   0  0  0  0  0  0  0  0  0  0  0  0
   -0.9051   -1.8412    0.7371 H   0  0  0  0  0  0  0  0  0  0  0  0
    0.1584   -3.3712   -2.0100 H   0  0  0  0  0  0  0  0  0  0  0  0
   -0.7768    0.7685   -2.1788 H   0  0  0  0  0  0  0  0  0  0  0  0
   -1.8638    2.5154   -0.1318 H   0  0  0  0  0  0  0  0  0  0  0  0
   -3.4412    4.0042   -1.1120 H   0  0  0  0  0  0  0  0  0  0  0  0
   -3.8957    3.9647   -3.9504 H   0  0  0  0  0  0  0  0  0  0  0  0
   -4.8846    1.7540   -3.5397 H   0  0  0  0  0  0  0  0  0  0  0  0
   -6.1586    2.8950   -3.8903 H   0  0  0  0  0  0  0  0  0  0  0  0
   -7.7582    3.6190   -2.1158 H   0  0  0  0  0  0  0  0  0  0  0  0
   -8.8558    3.0008    0.0074 H   0  0  0  0  0  0  0  0  0  0  0  0
   -7.5130    0.5476    2.1570 H   0  0  0  0  0  0  0  0  0  0  0  0
   -5.7302    0.1583    0.8154 H   0  0  0  0  0  0  0  0  0  0  0  0
   -4.6232    0.7618   -1.2952 H   0  0  0  0  0  0  0  0  0  0  0  0
   -5.2509    6.4918   -1.4348 H   0  0  0  0  0  0  0  0  0  0  0  0
    0.6424    3.2448   -1.7014 H   0  0  0  0  0  0  0  0  0  0  0  0
   -1.4256    5.3507   -0.8839 H   0  0  0  0  0  0  0  0  0  0  0  0
    0.2180    5.6650   -1.4059 H   0  0  0  0  0  0  0  0  0  0  0  0
   -0.9355    4.9830   -2.5611 H   0  0  0  0  0  0  0  0  0  0  0  0
    0.4824    2.8263    0.6243 H   0  0  0  0  0  0  0  0  0  0  0  0
    5.6553   -0.7794   -0.7662 H   0  0  0  0  0  0  0  0  0  0  0  0
    6.7325   -1.9442    1.1252 H   0  0  0  0  0  0  0  0  0  0  0  0
    7.5257   -0.3951    0.8519 H   0  0  0  0  0  0  0  0  0  0  0  0
    6.3928   -0.5767    2.2026 H   0  0  0  0  0  0  0  0  0  0  0  0
    6.3568    1.5169   -0.1175 H   0  0  0  0  0  0  0  0  0  0  0  0
    4.6302    1.4891   -0.4698 H   0  0  0  0  0  0  0  0  0  0  0  0
    5.1849    1.5232    1.2102 H   0  0  0  0  0  0  0  0  0  0  0  0
  1  2  1  0
  2  3  1  0
  2  4  1  0
  4  5  1  0
  4  6  1  0
  6  7  2  0
  6  8  1  0
  8  9  1  0
  9 10  1  0
 10 11  2  0
 10 12  1  0
 12 13  1  0
 13 14  1  0
 14 15  1  0
 13 16  1  0
 16 17  2  0
 16 18  1  0
 18 19  1  0
 19 20  1  0
 20 21  2  0
 20 22  1  0
 22 23  1  0
 23 24  1  0
 24 25  1  0
 25 26  2  0
 26 27  1  0
 27 28  2  0
 28 29  1  0
 28 30  1  0
 30 31  2  0
 23 32  1  0
 32 33  2  0
 32 34  1  0
 19 35  1  0
 35 36  1  0
 35 37  1  0
  9 38  1  0
 38 39  1  0
 38 40  1  0
 31 25  1  0
  1 41  1  0
  1 42  1  0
  1 43  1  0
  2 44  1  0
  3 45  1  0
  3 46  1  0
  3 47  1  0
  4 48  1  6
  5 49  1  0
  5 50  1  0
  8 51  1  0
  9 52  1  1
 12 53  1  0
 13 54  1  6
 14 55  1  0
 14 56  1  0
 15 57  1  0
 18 58  1  0
 19 59  1  1
 22 60  1  0
 23 61  1  6
 24 62  1  0
 24 63  1  0
 26 64  1  0
 27 65  1  0
 29 66  1  0
 30 67  1  0
 31 68  1  0
 34 69  1  0
 35 70  1  6
 36 71  1  0
 36 72  1  0
 36 73  1  0
 37 74  1  0
 38 75  1  0
 39 76  1  0
 39 77  1  0
 39 78  1  0
 40 79  1  0
 40 80  1  0
 40 81  1  0
M  END
$$$$
VVCTY.sdf
     RDKit          3D

 81 81  0  0  0  0  0  0  0  0999 V2000
    7.3581   -5.0227   -0.1405 C   0  0  0  0  0  0  0  0  0  0  0  0
    6.0133   -4.6251    0.4776 C   0  0  0  0  0  0  0  0  0  0  0  0
    4.9564   -5.6838    0.1428 C   0  0  0  0  0  0  0  0  0  0  0  0
    6.1513   -4.3526    1.9949 C   0  0  2  0  0  0  0  0  0  0  0  0
    6.5490   -5.5557    2.7579 N   0  0  0  0  0  0  0  0  0  0  0  0
    4.8460   -3.7698    2.5945 C   0  0  0  0  0  0  0  0  0  0  0  0
    4.1263   -4.4119    3.3581 O   0  0  0  0  0  0  0  0  0  0  0  0
    4.5772   -2.4686    2.2234 N   0  0  0  0  0  0  0  0  0  0  0  0
    3.2619   -1.8851    2.4786 C   0  0  2  0  0  0  0  0  0  0  0  0
    2.4154   -2.0703    1.1980 C   0  0  0  0  0  0  0  0  0  0  0  0
    2.9271   -2.2726    0.0966 O   0  0  0  0  0  0  0  0  0  0  0  0
    1.0531   -1.9505    1.3821 N   0  0  0  0  0  0  0  0  0  0  0  0
    0.1636   -1.8037    0.2239 C   0  0  1  0  0  0  0  0  0  0  0  0
   -1.1974   -2.4486    0.5084 C   0  0  0  0  0  0  0  0  0  0  0  0
   -2.2352   -2.6482   -0.9786 S   0  0  0  0  0  0  0  0  0  0  0  0
    0.0187   -0.2859   -0.0094 C   0  0  0  0  0  0  0  0  0  0  0  0
    0.1908    0.5326    0.8942 O   0  0  0  0  0  0  0  0  0  0  0  0
   -0.3447    0.0724   -1.2909 N   0  0  0  0  0  0  0  0  0  0  0  0
   -0.7834    1.4408   -1.5756 C   0  0  2  0  0  0  0  0  0  0  0  0
   -2.3081    1.5347   -1.3335 C   0  0  0  0  0  0  0  0  0  0  0  0
   -3.0010    0.5511   -1.0742 O   0  0  0  0  0  0  0  0  0  0  0  0
   -2.8228    2.8093   -1.4361 N   0  0  0  0  0  0  0  0  0  0  0  0
   -4.2706    3.0460   -1.4231 C   0  0  1  0  0  0  0  0  0  0  0  0
   -4.5661    4.4651   -0.9232 C   0  0  0  0  0  0  0  0  0  0  0  0
   -6.0348    4.7438   -0.7097 C   0  0  0  0  0  0  0  0  0  0  0  0
   -6.7388    5.5660   -1.6008 C   0  0  0  0  0  0  0  0  0  0  0  0
   -8.0992    5.8112   -1.4094 C   0  0  0  0  0  0  0  0  0  0  0  0
   -8.7580    5.2366   -0.3298 C   0  0  0  0  0  0  0  0  0  0  0  0
  -10.0872    5.5018   -0.1826 O   0  0  0  0  0  0  0  0  0  0  0  0
   -8.0780    4.4195    0.5668 C   0  0  0  0  0  0  0  0  0  0  0  0
   -6.7163    4.1743    0.3762 C   0  0  0  0  0  0  0  0  0  0  0  0
   -4.7818    2.8791   -2.8535 C   0  0  0  0  0  0  0  0  0  0  0  0
   -4.2134    3.2541   -3.8699 O   0  0  0  0  0  0  0  0  0  0  0  0
   -5.9791    2.2660   -2.9264 O   0  0  0  0  0  0  0  0  0  0  0  0
   -0.4028    1.8867   -3.0037 C   0  0  1  0  0  0  0  0  0  0  0  0
   -1.1115    1.1128   -4.1117 C   0  0  0  0  0  0  0  0  0  0  0  0
   -0.6767    3.2866   -3.1601 O   0  0  0  0  0  0  0  0  0  0  0  0
    3.3442   -0.3980    2.8906 C   0  0  0  0  0  0  0  0  0  0  0  0
    4.0485    0.4839    1.8543 C   0  0  0  0  0  0  0  0  0  0  0  0
    4.0292   -0.2487    4.2526 C   0  0  0  0  0  0  0  0  0  0  0  0
    7.7172   -5.9809    0.2491 H   0  0  0  0  0  0  0  0  0  0  0  0
    8.1198   -4.2631    0.0646 H   0  0  0  0  0  0  0  0  0  0  0  0
    7.2690   -5.1178   -1.2282 H   0  0  0  0  0  0  0  0  0  0  0  0
    5.6990   -3.6955   -0.0137 H   0  0  0  0  0  0  0  0  0  0  0  0
    3.9760   -5.4077    0.5433 H   0  0  0  0  0  0  0  0  0  0  0  0
    4.8486   -5.7851   -0.9429 H   0  0  0  0  0  0  0  0  0  0  0  0
    5.2247   -6.6681    0.5399 H   0  0  0  0  0  0  0  0  0  0  0  0
    6.9348   -3.5999    2.1508 H   0  0  0  0  0  0  0  0  0  0  0  0
    5.7492   -6.1952    2.7544 H   0  0  0  0  0  0  0  0  0  0  0  0
    6.6233   -5.2877    3.7418 H   0  0  0  0  0  0  0  0  0  0  0  0
    5.0220   -2.1483    1.3704 H   0  0  0  0  0  0  0  0  0  0  0  0
    2.7652   -2.4503    3.2770 H   0  0  0  0  0  0  0  0  0  0  0  0
    0.7563   -1.4526    2.2153 H   0  0  0  0  0  0  0  0  0  0  0  0
    0.6395   -2.2609   -0.6513 H   0  0  0  0  0  0  0  0  0  0  0  0
   -1.0459   -3.4510    0.9240 H   0  0  0  0  0  0  0  0  0  0  0  0
   -1.7626   -1.8714    1.2486 H   0  0  0  0  0  0  0  0  0  0  0  0
   -2.8081   -1.4265   -0.9345 H   0  0  0  0  0  0  0  0  0  0  0  0
   -0.7919   -0.6585   -1.8369 H   0  0  0  0  0  0  0  0  0  0  0  0
   -0.3142    2.1241   -0.8561 H   0  0  0  0  0  0  0  0  0  0  0  0
   -2.2586    3.4495   -2.0005 H   0  0  0  0  0  0  0  0  0  0  0  0
   -4.7391    2.2875   -0.7857 H   0  0  0  0  0  0  0  0  0  0  0  0
   -4.0455    4.6383    0.0286 H   0  0  0  0  0  0  0  0  0  0  0  0
   -4.1482    5.2051   -1.6194 H   0  0  0  0  0  0  0  0  0  0  0  0
   -6.2366    6.0219   -2.4513 H   0  0  0  0  0  0  0  0  0  0  0  0
   -8.6435    6.4484   -2.1004 H   0  0  0  0  0  0  0  0  0  0  0  0
  -10.4093    5.0351    0.6058 H   0  0  0  0  0  0  0  0  0  0  0  0
   -8.5852    3.9670    1.4128 H   0  0  0  0  0  0  0  0  0  0  0  0
   -6.1902    3.5341    1.0817 H   0  0  0  0  0  0  0  0  0  0  0  0
   -6.1914    2.2360   -3.8817 H   0  0  0  0  0  0  0  0  0  0  0  0
    0.6796    1.7615   -3.1289 H   0  0  0  0  0  0  0  0  0  0  0  0
   -0.7781    1.4683   -5.0930 H   0  0  0  0  0  0  0  0  0  0  0  0
   -2.1943    1.2674   -4.0818 H   0  0  0  0  0  0  0  0  0  0  0  0
   -0.9071    0.0401   -4.0514 H   0  0  0  0  0  0  0  0  0  0  0  0
   -0.4014    3.5366   -4.0624 H   0  0  0  0  0  0  0  0  0  0  0  0
    2.3224   -0.0124    2.9996 H   0  0  0  0  0  0  0  0  0  0  0  0
    3.5503    0.4304    0.8814 H   0  0  0  0  0  0  0  0  0  0  0  0
    5.0960    0.1956    1.7197 H   0  0  0  0  0  0  0  0  0  0  0  0
    4.0328    1.5326    2.1713 H   0  0  0  0  0  0  0  0  0  0  0  0
    4.0102    0.7957    4.5822 H   0  0  0  0  0  0  0  0  0  0  0  0
    3.5162   -0.8465    5.0134 H   0  0  0  0  0  0  0  0  0  0  0  0
    5.0757   -0.5691    4.2158 H   0  0  0  0  0  0  0  0  0  0  0  0
  1  2  1  0
  2  3  1  0
  2  4  1  0
  4  5  1  0
  4  6  1  0
  6  7  2  0
  6  8  1  0
  8  9  1  0
  9 10  1  0
 10 11  2  0
 10 12  1  0
 12 13  1  0
 13 14  1  0
 14 15  1  0
 13 16  1  0
 16 17  2  0
 16 18  1  0
 18 19  1  0
 19 20  1  0
 20 21  2  0
 20 22  1  0
 22 23  1  0
 23 24  1  0
 24 25  1  0
 25 26  2  0
 26 27  1  0
 27 28  2  0
 28 29  1  0
 28 30  1  0
 30 31  2  0
 23 32  1  0
 32 33  2  0
 32 34  1  0
 19 35  1  0
 35 36  1  0
 35 37  1  0
  9 38  1  0
 38 39  1  0
 38 40  1  0
 31 25  1  0
  1 41  1  0
  1 42  1  0
  1 43  1  0
  2 44  1  0
  3 45  1  0
  3 46  1  0
  3 47  1  0
  4 48  1  6
  5 49  1  0
  5 50  1  0
  8 51  1  0
  9 52  1  1
 12 53  1  0
 13 54  1  6
 14 55  1  0
 14 56  1  0
 15 57  1  0
 18 58  1  0
 19 59  1  1
 22 60  1  0
 23 61  1  1
 24 62  1  0
 24 63  1  0
 26 64  1  0
 27 65  1  0
 29 66  1  0
 30 67  1  0
 31 68  1  0
 34 69  1  0
 35 70  1  6
 36 71  1  0
 36 72  1  0
 36 73  1  0
 37 74  1  0
 38 75  1  0
 39 76  1  0
 39 77  1  0
 39 78  1  0
 40 79  1  0
 40 80  1  0
 40 81  1  0
M  END
$$$$
VVCTY.sdf
     RDKit          3D

 81 81  0  0  0  0  0  0  0  0999 V2000
    5.8234    0.4327   -0.4767 C   0  0  0  0  0  0  0  0  0  0  0  0
    5.5911    0.5352    1.0374 C   0  0  0  0  0  0  0  0  0  0  0  0
    5.6116    2.0175    1.4342 C   0  0  0  0  0  0  0  0  0  0  0  0
    4.2670   -0.1570    1.4394 C   0  0  2  0  0  0  0  0  0  0  0  0
    3.9654    0.0500    2.8744 N   0  0  0  0  0  0  0  0  0  0  0  0
    4.3023   -1.6908    1.1973 C   0  0  0  0  0  0  0  0  0  0  0  0
    5.3354   -2.3407    1.0816 O   0  0  0  0  0  0  0  0  0  0  0  0
    3.0409   -2.2655    1.2071 N   0  0  0  0  0  0  0  0  0  0  0  0
    2.8590   -3.6874    0.8577 C   0  0  2  0  0  0  0  0  0  0  0  0
    1.3656   -3.8794    0.5239 C   0  0  0  0  0  0  0  0  0  0  0  0
    0.9719   -4.5124   -0.4512 O   0  0  0  0  0  0  0  0  0  0  0  0
    0.5028   -3.2887    1.4305 N   0  0  0  0  0  0  0  0  0  0  0  0
   -0.8192   -2.8680    0.9758 C   0  0  1  0  0  0  0  0  0  0  0  0
   -1.8197   -2.7067    2.1233 C   0  0  0  0  0  0  0  0  0  0  0  0
   -2.0924   -4.2542    3.0482 S   0  0  0  0  0  0  0  0  0  0  0  0
   -0.5952   -1.4954    0.3025 C   0  0  0  0  0  0  0  0  0  0  0  0
    0.4401   -0.8453    0.4689 O   0  0  0  0  0  0  0  0  0  0  0  0
   -1.6299   -1.0517   -0.4773 N   0  0  0  0  0  0  0  0  0  0  0  0
   -1.6255    0.2561   -1.1382 C   0  0  2  0  0  0  0  0  0  0  0  0
   -3.0830    0.5573   -1.5457 C   0  0  0  0  0  0  0  0  0  0  0  0
   -4.0034   -0.2180   -1.2797 O   0  0  0  0  0  0  0  0  0  0  0  0
   -3.2811    1.7550   -2.1788 N   0  0  0  0  0  0  0  0  0  0  0  0
   -4.5926    2.1970   -2.6524 C   0  0  1  0  0  0  0  0  0  0  0  0
   -5.4655    2.7834   -1.5300 C   0  0  0  0  0  0  0  0  0  0  0  0
   -4.8895    4.0095   -0.8544 C   0  0  0  0  0  0  0  0  0  0  0  0
   -5.2297    5.2959   -1.2984 C   0  0  0  0  0  0  0  0  0  0  0  0
   -4.6852    6.4266   -0.6846 C   0  0  0  0  0  0  0  0  0  0  0  0
   -3.8005    6.2698    0.3768 C   0  0  0  0  0  0  0  0  0  0  0  0
   -3.2455    7.3452    1.0048 O   0  0  0  0  0  0  0  0  0  0  0  0
   -3.4553    5.0046    0.8339 C   0  0  0  0  0  0  0  0  0  0  0  0
   -3.9996    3.8756    0.2210 C   0  0  0  0  0  0  0  0  0  0  0  0
   -4.4067    3.1699   -3.8155 C   0  0  0  0  0  0  0  0  0  0  0  0
   -3.3425    3.5283   -4.2988 O   0  0  0  0  0  0  0  0  0  0  0  0
   -5.5677    3.5945   -4.3555 O   0  0  0  0  0  0  0  0  0  0  0  0
   -0.6444    0.3328   -2.3285 C   0  0  1  0  0  0  0  0  0  0  0  0
   -1.0209   -0.5716   -3.4976 C   0  0  0  0  0  0  0  0  0  0  0  0
   -0.5595    1.6862   -2.7928 O   0  0  0  0  0  0  0  0  0  0  0  0
    3.3815   -4.6584    1.9435 C   0  0  0  0  0  0  0  0  0  0  0  0
    3.2469   -6.1160    1.4925 C   0  0  0  0  0  0  0  0  0  0  0  0
    2.7394   -4.4775    3.3216 C   0  0  0  0  0  0  0  0  0  0  0  0
    6.7610    0.9243   -0.7586 H   0  0  0  0  0  0  0  0  0  0  0  0
    5.0113    0.9119   -1.0344 H   0  0  0  0  0  0  0  0  0  0  0  0
    5.8909   -0.6078   -0.8074 H   0  0  0  0  0  0  0  0  0  0  0  0
    6.4319    0.0399    1.5409 H   0  0  0  0  0  0  0  0  0  0  0  0
    5.5704    2.1423    2.5209 H   0  0  0  0  0  0  0  0  0  0  0  0
    6.5334    2.4989    1.0897 H   0  0  0  0  0  0  0  0  0  0  0  0
    4.7651    2.5567    0.9954 H   0  0  0  0  0  0  0  0  0  0  0  0
    3.4444    0.2680    0.8511 H   0  0  0  0  0  0  0  0  0  0  0  0
    4.7412   -0.3314    3.4197 H   0  0  0  0  0  0  0  0  0  0  0  0
    3.1532   -0.5135    3.1234 H   0  0  0  0  0  0  0  0  0  0  0  0
    2.2907   -1.6288    0.9288 H   0  0  0  0  0  0  0  0  0  0  0  0
    3.4163   -3.8491   -0.0744 H   0  0  0  0  0  0  0  0  0  0  0  0
    0.9476   -2.6851    2.1139 H   0  0  0  0  0  0  0  0  0  0  0  0
   -1.1940   -3.5681    0.2198 H   0  0  0  0  0  0  0  0  0  0  0  0
   -1.4733   -1.9498    2.8361 H   0  0  0  0  0  0  0  0  0  0  0  0
   -2.7894   -2.3703    1.7414 H   0  0  0  0  0  0  0  0  0  0  0  0
   -2.3873   -5.0269    1.9913 H   0  0  0  0  0  0  0  0  0  0  0  0
   -2.4955   -1.5817   -0.5570 H   0  0  0  0  0  0  0  0  0  0  0  0
   -1.3462    1.0059   -0.3866 H   0  0  0  0  0  0  0  0  0  0  0  0
   -2.4581    2.2823   -2.4867 H   0  0  0  0  0  0  0  0  0  0  0  0
   -5.0951    1.3129   -3.0651 H   0  0  0  0  0  0  0  0  0  0  0  0
   -5.6430    2.0184   -0.7625 H   0  0  0  0  0  0  0  0  0  0  0  0
   -6.4597    3.0331   -1.9232 H   0  0  0  0  0  0  0  0  0  0  0  0
   -5.9260    5.4274   -2.1239 H   0  0  0  0  0  0  0  0  0  0  0  0
   -4.9627    7.4120   -1.0445 H   0  0  0  0  0  0  0  0  0  0  0  0
   -3.5714    8.1546    0.5791 H   0  0  0  0  0  0  0  0  0  0  0  0
   -2.7652    4.8975    1.6659 H   0  0  0  0  0  0  0  0  0  0  0  0
   -3.7255    2.8903    0.5907 H   0  0  0  0  0  0  0  0  0  0  0  0
   -5.2835    4.1674   -5.0997 H   0  0  0  0  0  0  0  0  0  0  0  0
    0.3594    0.0573   -1.9863 H   0  0  0  0  0  0  0  0  0  0  0  0
   -0.2628   -0.5028   -4.2858 H   0  0  0  0  0  0  0  0  0  0  0  0
   -1.9665   -0.2644   -3.9560 H   0  0  0  0  0  0  0  0  0  0  0  0
   -1.0996   -1.6180   -3.1889 H   0  0  0  0  0  0  0  0  0  0  0  0
    0.1396    1.7191   -3.4721 H   0  0  0  0  0  0  0  0  0  0  0  0
    4.4542   -4.4698    2.0754 H   0  0  0  0  0  0  0  0  0  0  0  0
    3.7279   -6.7878    2.2117 H   0  0  0  0  0  0  0  0  0  0  0  0
    2.1981   -6.4181    1.4058 H   0  0  0  0  0  0  0  0  0  0  0  0
    3.7289   -6.2693    0.5212 H   0  0  0  0  0  0  0  0  0  0  0  0
    3.2541   -5.0989    4.0631 H   0  0  0  0  0  0  0  0  0  0  0  0
    1.6871   -4.7771    3.3252 H   0  0  0  0  0  0  0  0  0  0  0  0
    2.8078   -3.4399    3.6625 H   0  0  0  0  0  0  0  0  0  0  0  0
  1  2  1  0
  2  3  1  0
  2  4  1  0
  4  5  1  0
  4  6  1  0
  6  7  2  0
  6  8  1  0
  8  9  1  0
  9 10  1  0
 10 11  2  0
 10 12  1  0
 12 13  1  0
 13 14  1  0
 14 15  1  0
 13 16  1  0
 16 17  2  0
 16 18  1  0
 18 19  1  0
 19 20  1  0
 20 21  2  0
 20 22  1  0
 22 23  1  0
 23 24  1  0
 24 25  1  0
 25 26  2  0
 26 27  1  0
 27 28  2  0
 28 29  1  0
 28 30  1  0
 30 31  2  0
 23 32  1  0
 32 33  2  0
 32 34  1  0
 19 35  1  0
 35 36  1  0
 35 37  1  0
  9 38  1  0
 38 39  1  0
 38 40  1  0
 31 25  1  0
  1 41  1  0
  1 42  1  0
  1 43  1  0
  2 44  1  0
  3 45  1  0
  3 46  1  0
  3 47  1  0
  4 48  1  6
  5 49  1  0
  5 50  1  0
  8 51  1  0
  9 52  1  6
 12 53  1  0
 13 54  1  6
 14 55  1  0
 14 56  1  0
 15 57  1  0
 18 58  1  0
 19 59  1  1
 22 60  1  0
 23 61  1  6
 24 62  1  0
 24 63  1  0
 26 64  1  0
 27 65  1  0
 29 66  1  0
 30 67  1  0
 31 68  1  0
 34 69  1  0
 35 70  1  1
 36 71  1  0
 36 72  1  0
 36 73  1  0
 37 74  1  0
 38 75  1  0
 39 76  1  0
 39 77  1  0
 39 78  1  0
 40 79  1  0
 40 80  1  0
 40 81  1  0
M  END
$$$$
VVCTY.sdf
     RDKit          3D

 81 81  0  0  0  0  0  0  0  0999 V2000
    6.4167   -5.0433    4.0256 C   0  0  0  0  0  0  0  0  0  0  0  0
    5.7428   -5.4919    2.7238 C   0  0  0  0  0  0  0  0  0  0  0  0
    6.6075   -5.0727    1.5307 C   0  0  0  0  0  0  0  0  0  0  0  0
    4.2755   -5.0081    2.6552 C   0  0  2  0  0  0  0  0  0  0  0  0
    3.5504   -5.6559    1.5367 N   0  0  0  0  0  0  0  0  0  0  0  0
    4.1454   -3.4657    2.5873 C   0  0  0  0  0  0  0  0  0  0  0  0
    4.1524   -2.7627    3.5948 O   0  0  0  0  0  0  0  0  0  0  0  0
    4.0652   -2.9365    1.3139 N   0  0  0  0  0  0  0  0  0  0  0  0
    3.6635   -1.5426    1.1218 C   0  0  2  0  0  0  0  0  0  0  0  0
    2.1262   -1.5994    0.9818 C   0  0  0  0  0  0  0  0  0  0  0  0
    1.5683   -2.4467    0.2826 O   0  0  0  0  0  0  0  0  0  0  0  0
    1.4370   -0.6497    1.6992 N   0  0  0  0  0  0  0  0  0  0  0  0
   -0.0065   -0.4816    1.5406 C   0  0  1  0  0  0  0  0  0  0  0  0
   -0.7077   -0.0889    2.8456 C   0  0  0  0  0  0  0  0  0  0  0  0
   -0.5603   -1.3644    4.1404 S   0  0  0  0  0  0  0  0  0  0  0  0
   -0.2358    0.6474    0.5219 C   0  0  0  0  0  0  0  0  0  0  0  0
    0.5538    1.5797    0.3786 O   0  0  0  0  0  0  0  0  0  0  0  0
   -1.4136    0.5651   -0.1755 N   0  0  0  0  0  0  0  0  0  0  0  0
   -1.8407    1.5856   -1.1331 C   0  0  2  0  0  0  0  0  0  0  0  0
   -3.3400    1.3522   -1.4124 C   0  0  0  0  0  0  0  0  0  0  0  0
   -3.9531    0.4009   -0.9267 O   0  0  0  0  0  0  0  0  0  0  0  0
   -3.9292    2.2993   -2.2171 N   0  0  0  0  0  0  0  0  0  0  0  0
   -5.3142    2.1550   -2.6701 C   0  0  1  0  0  0  0  0  0  0  0  0
   -5.9452    3.5103   -3.0113 C   0  0  0  0  0  0  0  0  0  0  0  0
   -6.1485    4.3872   -1.7974 C   0  0  0  0  0  0  0  0  0  0  0  0
   -7.2597    4.1952   -0.9641 C   0  0  0  0  0  0  0  0  0  0  0  0
   -7.4404    4.9940    0.1658 C   0  0  0  0  0  0  0  0  0  0  0  0
   -6.5118    5.9822    0.4669 C   0  0  0  0  0  0  0  0  0  0  0  0
   -6.7275    6.7384    1.5807 O   0  0  0  0  0  0  0  0  0  0  0  0
   -5.4008    6.1867   -0.3442 C   0  0  0  0  0  0  0  0  0  0  0  0
   -5.2197    5.3878   -1.4756 C   0  0  0  0  0  0  0  0  0  0  0  0
   -5.3324    1.2867   -3.9261 C   0  0  0  0  0  0  0  0  0  0  0  0
   -4.4203    1.1401   -4.7263 O   0  0  0  0  0  0  0  0  0  0  0  0
   -6.5222    0.6855   -4.1338 O   0  0  0  0  0  0  0  0  0  0  0  0
   -0.9998    1.5992   -2.4296 C   0  0  1  0  0  0  0  0  0  0  0  0
   -1.0870    0.3035   -3.2305 C   0  0  0  0  0  0  0  0  0  0  0  0
   -1.4062    2.6957   -3.2652 O   0  0  0  0  0  0  0  0  0  0  0  0
    4.3172   -0.9511   -0.1455 C   0  0  0  0  0  0  0  0  0  0  0  0
    5.8459   -0.9542   -0.0256 C   0  0  0  0  0  0  0  0  0  0  0  0
    3.8413    0.4775   -0.4234 C   0  0  0  0  0  0  0  0  0  0  0  0
    5.8223   -5.3402    4.8960 H   0  0  0  0  0  0  0  0  0  0  0  0
    6.5551   -3.9579    4.0585 H   0  0  0  0  0  0  0  0  0  0  0  0
    7.4046   -5.5061    4.1260 H   0  0  0  0  0  0  0  0  0  0  0  0
    5.7261   -6.5907    2.7418 H   0  0  0  0  0  0  0  0  0  0  0  0
    7.6089   -5.5098    1.6150 H   0  0  0  0  0  0  0  0  0  0  0  0
    6.7292   -3.9864    1.4828 H   0  0  0  0  0  0  0  0  0  0  0  0
    6.1859   -5.4148    0.5814 H   0  0  0  0  0  0  0  0  0  0  0  0
    3.7536   -5.3167    3.5698 H   0  0  0  0  0  0  0  0  0  0  0  0
    2.6139   -5.2580    1.4558 H   0  0  0  0  0  0  0  0  0  0  0  0
    4.0367   -5.5312    0.6546 H   0  0  0  0  0  0  0  0  0  0  0  0
    3.7287   -3.5744    0.6039 H   0  0  0  0  0  0  0  0  0  0  0  0
    3.9340   -0.9531    2.0053 H   0  0  0  0  0  0  0  0  0  0  0  0
    1.9522    0.1513    2.0485 H   0  0  0  0  0  0  0  0  0  0  0  0
   -0.4408   -1.4047    1.1383 H   0  0  0  0  0  0  0  0  0  0  0  0
   -1.7747    0.0849    2.6688 H   0  0  0  0  0  0  0  0  0  0  0  0
   -0.2898    0.8420    3.2454 H   0  0  0  0  0  0  0  0  0  0  0  0
   -1.0439   -2.3870    3.4195 H   0  0  0  0  0  0  0  0  0  0  0  0
   -2.0753   -0.1900   -0.0076 H   0  0  0  0  0  0  0  0  0  0  0  0
   -1.7585    2.5614   -0.6369 H   0  0  0  0  0  0  0  0  0  0  0  0
   -3.2826    2.7912   -2.8376 H   0  0  0  0  0  0  0  0  0  0  0  0
   -5.8802    1.6351   -1.8878 H   0  0  0  0  0  0  0  0  0  0  0  0
   -6.9182    3.3663   -3.4999 H   0  0  0  0  0  0  0  0  0  0  0  0
   -5.3283    4.0429   -3.7481 H   0  0  0  0  0  0  0  0  0  0  0  0
   -7.9923    3.4226   -1.1868 H   0  0  0  0  0  0  0  0  0  0  0  0
   -8.3020    4.8441    0.8101 H   0  0  0  0  0  0  0  0  0  0  0  0
   -6.0012    7.3773    1.6658 H   0  0  0  0  0  0  0  0  0  0  0  0
   -4.6694    6.9548   -0.1142 H   0  0  0  0  0  0  0  0  0  0  0  0
   -4.3455    5.5490   -2.1026 H   0  0  0  0  0  0  0  0  0  0  0  0
   -6.3868    0.1527   -4.9458 H   0  0  0  0  0  0  0  0  0  0  0  0
    0.0510    1.7770   -2.1749 H   0  0  0  0  0  0  0  0  0  0  0  0
   -2.1057    0.1173   -3.5838 H   0  0  0  0  0  0  0  0  0  0  0  0
   -0.4581    0.3687   -4.1253 H   0  0  0  0  0  0  0  0  0  0  0  0
   -0.7558   -0.5572   -2.6421 H   0  0  0  0  0  0  0  0  0  0  0  0
   -0.8048    2.7001   -4.0339 H   0  0  0  0  0  0  0  0  0  0  0  0
    4.0484   -1.5674   -1.0140 H   0  0  0  0  0  0  0  0  0  0  0  0
    6.1761   -0.3781    0.8455 H   0  0  0  0  0  0  0  0  0  0  0  0
    6.2354   -1.9721    0.0713 H   0  0  0  0  0  0  0  0  0  0  0  0
    6.3071   -0.5143   -0.9166 H   0  0  0  0  0  0  0  0  0  0  0  0
    3.9984    1.1262    0.4448 H   0  0  0  0  0  0  0  0  0  0  0  0
    2.7784    0.4944   -0.6797 H   0  0  0  0  0  0  0  0  0  0  0  0
    4.3813    0.9111   -1.2721 H   0  0  0  0  0  0  0  0  0  0  0  0
  1  2  1  0
  2  3  1  0
  2  4  1  0
  4  5  1  0
  4  6  1  0
  6  7  2  0
  6  8  1  0
  8  9  1  0
  9 10  1  0
 10 11  2  0
 10 12  1  0
 12 13  1  0
 13 14  1  0
 14 15  1  0
 13 16  1  0
 16 17  2  0
 16 18  1  0
 18 19  1  0
 19 20  1  0
 20 21  2  0
 20 22  1  0
 22 23  1  0
 23 24  1  0
 24 25  1  0
 25 26  2  0
 26 27  1  0
 27 28  2  0
 28 29  1  0
 28 30  1  0
 30 31  2  0
 23 32  1  0
 32 33  2  0
 32 34  1  0
 19 35  1  0
 35 36  1  0
 35 37  1  0
  9 38  1  0
 38 39  1  0
 38 40  1  0
 31 25  1  0
  1 41  1  0
  1 42  1  0
  1 43  1  0
  2 44  1  0
  3 45  1  0
  3 46  1  0
  3 47  1  0
  4 48  1  1
  5 49  1  0
  5 50  1  0
  8 51  1  0
  9 52  1  1
 12 53  1  0
 13 54  1  6
 14 55  1  0
 14 56  1  0
 15 57  1  0
 18 58  1  0
 19 59  1  1
 22 60  1  0
 23 61  1  1
 24 62  1  0
 24 63  1  0
 26 64  1  0
 27 65  1  0
 29 66  1  0
 30 67  1  0
 31 68  1  0
 34 69  1  0
 35 70  1  1
 36 71  1  0
 36 72  1  0
 36 73  1  0
 37 74  1  0
 38 75  1  0
 39 76  1  0
 39 77  1  0
 39 78  1  0
 40 79  1  0
 40 80  1  0
 40 81  1  0
M  END
$$$$
VVCTY.sdf
     RDKit          3D

 81 81  0  0  0  0  0  0  0  0999 V2000
    4.2191   -6.9005    2.3251 C   0  0  0  0  0  0  0  0  0  0  0  0
    5.4291   -6.0884    2.8055 C   0  0  0  0  0  0  0  0  0  0  0  0
    6.0153   -6.7566    4.0554 C   0  0  0  0  0  0  0  0  0  0  0  0
    5.1357   -4.5911    3.0709 C   0  0  2  0  0  0  0  0  0  0  0  0
    3.9623   -4.3798    3.9486 N   0  0  0  0  0  0  0  0  0  0  0  0
    4.9515   -3.7671    1.7702 C   0  0  0  0  0  0  0  0  0  0  0  0
    4.7033   -4.2648    0.6790 O   0  0  0  0  0  0  0  0  0  0  0  0
    5.0748   -2.4009    1.9904 N   0  0  0  0  0  0  0  0  0  0  0  0
    4.5859   -1.3839    1.0499 C   0  0  2  0  0  0  0  0  0  0  0  0
    3.0525   -1.2652    1.2731 C   0  0  0  0  0  0  0  0  0  0  0  0
    2.3598   -2.1703    1.7388 O   0  0  0  0  0  0  0  0  0  0  0  0
    2.5108   -0.0367    0.9705 N   0  0  0  0  0  0  0  0  0  0  0  0
    1.0777    0.2295    1.0805 C   0  0  1  0  0  0  0  0  0  0  0  0
    0.6935    0.9682    2.3704 C   0  0  0  0  0  0  0  0  0  0  0  0
    1.1663    0.1065    3.9073 S   0  0  0  0  0  0  0  0  0  0  0  0
    0.6915    1.1104   -0.1190 C   0  0  0  0  0  0  0  0  0  0  0  0
    1.5200    1.7704   -0.7477 O   0  0  0  0  0  0  0  0  0  0  0  0
   -0.6445    1.1403   -0.4220 N   0  0  0  0  0  0  0  0  0  0  0  0
   -1.2054    1.9276   -1.5357 C   0  0  2  0  0  0  0  0  0  0  0  0
   -2.7291    1.8754   -1.3353 C   0  0  0  0  0  0  0  0  0  0  0  0
   -3.2786    0.8902   -0.8434 O   0  0  0  0  0  0  0  0  0  0  0  0
   -3.4136    3.0090   -1.7124 N   0  0  0  0  0  0  0  0  0  0  0  0
   -4.8856    3.0482   -1.7098 C   0  0  1  0  0  0  0  0  0  0  0  0
   -5.3740    4.4454   -1.3086 C   0  0  0  0  0  0  0  0  0  0  0  0
   -6.8697    4.5382   -1.1261 C   0  0  0  0  0  0  0  0  0  0  0  0
   -7.4881    3.9555   -0.0099 C   0  0  0  0  0  0  0  0  0  0  0  0
   -8.8736    4.0279    0.1520 C   0  0  0  0  0  0  0  0  0  0  0  0
   -9.6407    4.6849   -0.8038 C   0  0  0  0  0  0  0  0  0  0  0  0
  -10.9957    4.7785   -0.6866 O   0  0  0  0  0  0  0  0  0  0  0  0
   -9.0455    5.2697   -1.9143 C   0  0  0  0  0  0  0  0  0  0  0  0
   -7.6615    5.1973   -2.0772 C   0  0  0  0  0  0  0  0  0  0  0  0
   -5.3476    2.7209   -3.1268 C   0  0  0  0  0  0  0  0  0  0  0  0
   -4.8202    3.1225   -4.1549 O   0  0  0  0  0  0  0  0  0  0  0  0
   -6.4332    1.9277   -3.1727 O   0  0  0  0  0  0  0  0  0  0  0  0
   -0.7425    1.3838   -2.9091 C   0  0  1  0  0  0  0  0  0  0  0  0
   -1.6716    1.6871   -4.0771 C   0  0  0  0  0  0  0  0  0  0  0  0
    0.5246    1.9637   -3.2574 O   0  0  0  0  0  0  0  0  0  0  0  0
    5.0215   -1.5683   -0.4267 C   0  0  0  0  0  0  0  0  0  0  0  0
    6.5440   -1.7405   -0.5350 C   0  0  0  0  0  0  0  0  0  0  0  0
    4.6101   -0.3948   -1.3246 C   0  0  0  0  0  0  0  0  0  0  0  0
    3.4608   -7.0030    3.1084 H   0  0  0  0  0  0  0  0  0  0  0  0
    4.5314   -7.9120    2.0416 H   0  0  0  0  0  0  0  0  0  0  0  0
    3.7445   -6.4494    1.4498 H   0  0  0  0  0  0  0  0  0  0  0  0
    6.1912   -6.1454    2.0166 H   0  0  0  0  0  0  0  0  0  0  0  0
    5.3002   -6.7588    4.8848 H   0  0  0  0  0  0  0  0  0  0  0  0
    6.2902   -7.7960    3.8457 H   0  0  0  0  0  0  0  0  0  0  0  0
    6.9199   -6.2362    4.3872 H   0  0  0  0  0  0  0  0  0  0  0  0
    6.0100   -4.1628    3.5793 H   0  0  0  0  0  0  0  0  0  0  0  0
    3.1490   -4.8001    3.4904 H   0  0  0  0  0  0  0  0  0  0  0  0
    3.7237   -3.3886    3.9753 H   0  0  0  0  0  0  0  0  0  0  0  0
    5.0946   -2.1209    2.9627 H   0  0  0  0  0  0  0  0  0  0  0  0
    5.0234   -0.4472    1.4220 H   0  0  0  0  0  0  0  0  0  0  0  0
    3.0790    0.6912    0.5484 H   0  0  0  0  0  0  0  0  0  0  0  0
    0.5280   -0.7162    1.0009 H   0  0  0  0  0  0  0  0  0  0  0  0
    1.1550    1.9620    2.3978 H   0  0  0  0  0  0  0  0  0  0  0  0
   -0.3908    1.1222    2.4026 H   0  0  0  0  0  0  0  0  0  0  0  0
    1.0486   -1.1462    3.4294 H   0  0  0  0  0  0  0  0  0  0  0  0
   -1.2768    0.4567   -0.0081 H   0  0  0  0  0  0  0  0  0  0  0  0
   -0.8555    2.9581   -1.3969 H   0  0  0  0  0  0  0  0  0  0  0  0
   -2.9551    3.6456   -2.3576 H   0  0  0  0  0  0  0  0  0  0  0  0
   -5.2600    2.2796   -1.0247 H   0  0  0  0  0  0  0  0  0  0  0  0
   -5.0464    5.1875   -2.0494 H   0  0  0  0  0  0  0  0  0  0  0  0
   -4.8964    4.7477   -0.3666 H   0  0  0  0  0  0  0  0  0  0  0  0
   -6.8950    3.4395    0.7425 H   0  0  0  0  0  0  0  0  0  0  0  0
   -9.3312    3.5685    1.0224 H   0  0  0  0  0  0  0  0  0  0  0  0
  -11.2679    4.3258    0.1283 H   0  0  0  0  0  0  0  0  0  0  0  0
   -9.6580    5.7807   -2.6518 H   0  0  0  0  0  0  0  0  0  0  0  0
   -7.2109    5.6592   -2.9531 H   0  0  0  0  0  0  0  0  0  0  0  0
   -6.6280    1.8118   -4.1258 H   0  0  0  0  0  0  0  0  0  0  0  0
   -0.5966    0.2982   -2.8567 H   0  0  0  0  0  0  0  0  0  0  0  0
   -2.6439    1.2006   -3.9610 H   0  0  0  0  0  0  0  0  0  0  0  0
   -1.8167    2.7660   -4.1963 H   0  0  0  0  0  0  0  0  0  0  0  0
   -1.2291    1.3317   -5.0148 H   0  0  0  0  0  0  0  0  0  0  0  0
    1.1122    1.8901   -2.4738 H   0  0  0  0  0  0  0  0  0  0  0  0
    4.5426   -2.4588   -0.8481 H   0  0  0  0  0  0  0  0  0  0  0  0
    6.8483   -1.8602   -1.5806 H   0  0  0  0  0  0  0  0  0  0  0  0
    6.8937   -2.6261    0.0033 H   0  0  0  0  0  0  0  0  0  0  0  0
    7.0685   -0.8683   -0.1297 H   0  0  0  0  0  0  0  0  0  0  0  0
    5.0379   -0.5023   -2.3277 H   0  0  0  0  0  0  0  0  0  0  0  0
    3.5247   -0.3551   -1.4527 H   0  0  0  0  0  0  0  0  0  0  0  0
    4.9525    0.5614   -0.9155 H   0  0  0  0  0  0  0  0  0  0  0  0
  1  2  1  0
  2  3  1  0
  2  4  1  0
  4  5  1  0
  4  6  1  0
  6  7  2  0
  6  8  1  0
  8  9  1  0
  9 10  1  0
 10 11  2  0
 10 12  1  0
 12 13  1  0
 13 14  1  0
 14 15  1  0
 13 16  1  0
 16 17  2  0
 16 18  1  0
 18 19  1  0
 19 20  1  0
 20 21  2  0
 20 22  1  0
 22 23  1  0
 23 24  1  0
 24 25  1  0
 25 26  2  0
 26 27  1  0
 27 28  2  0
 28 29  1  0
 28 30  1  0
 30 31  2  0
 23 32  1  0
 32 33  2  0
 32 34  1  0
 19 35  1  0
 35 36  1  0
 35 37  1  0
  9 38  1  0
 38 39  1  0
 38 40  1  0
 31 25  1  0
  1 41  1  0
  1 42  1  0
  1 43  1  0
  2 44  1  0
  3 45  1  0
  3 46  1  0
  3 47  1  0
  4 48  1  1
  5 49  1  0
  5 50  1  0
  8 51  1  0
  9 52  1  1
 12 53  1  0
 13 54  1  6
 14 55  1  0
 14 56  1  0
 15 57  1  0
 18 58  1  0
 19 59  1  1
 22 60  1  0
 23 61  1  1
 24 62  1  0
 24 63  1  0
 26 64  1  0
 27 65  1  0
 29 66  1  0
 30 67  1  0
 31 68  1  0
 34 69  1  0
 35 70  1  1
 36 71  1  0
 36 72  1  0
 36 73  1  0
 37 74  1  0
 38 75  1  0
 39 76  1  0
 39 77  1  0
 39 78  1  0
 40 79  1  0
 40 80  1  0
 40 81  1  0
M  END
$$$$
VVCTY.sdf
     RDKit          3D

 81 81  0  0  0  0  0  0  0  0999 V2000
    3.7111   -4.4012    3.7251 C   0  0  0  0  0  0  0  0  0  0  0  0
    3.8678   -2.8766    3.7183 C   0  0  0  0  0  0  0  0  0  0  0  0
    4.0678   -2.3740    5.1523 C   0  0  0  0  0  0  0  0  0  0  0  0
    2.6955   -2.1411    3.0270 C   0  0  2  0  0  0  0  0  0  0  0  0
    1.3886   -2.4440    3.6418 N   0  0  0  0  0  0  0  0  0  0  0  0
    2.6401   -2.4391    1.5064 C   0  0  0  0  0  0  0  0  0  0  0  0
    1.7244   -3.0755    0.9898 O   0  0  0  0  0  0  0  0  0  0  0  0
    3.6587   -1.8696    0.7739 N   0  0  0  0  0  0  0  0  0  0  0  0
    3.9013   -2.1545   -0.6472 C   0  0  2  0  0  0  0  0  0  0  0  0
    2.7266   -1.7845   -1.5914 C   0  0  0  0  0  0  0  0  0  0  0  0
    2.5931   -2.2487   -2.7213 O   0  0  0  0  0  0  0  0  0  0  0  0
    1.9332   -0.7611   -1.1311 N   0  0  0  0  0  0  0  0  0  0  0  0
    0.7752   -0.2640   -1.8648 C   0  0  1  0  0  0  0  0  0  0  0  0
   -0.3890   -1.2672   -1.9185 C   0  0  0  0  0  0  0  0  0  0  0  0
   -1.0336   -1.7743   -0.2866 S   0  0  0  0  0  0  0  0  0  0  0  0
    0.3703    1.0920   -1.2527 C   0  0  0  0  0  0  0  0  0  0  0  0
    0.9292    1.5683   -0.2624 O   0  0  0  0  0  0  0  0  0  0  0  0
   -0.6232    1.7694   -1.9072 N   0  0  0  0  0  0  0  0  0  0  0  0
   -1.1849    3.0488   -1.4376 C   0  0  2  0  0  0  0  0  0  0  0  0
   -2.5379    3.1679   -2.1560 C   0  0  0  0  0  0  0  0  0  0  0  0
   -2.7385    2.6254   -3.2441 O   0  0  0  0  0  0  0  0  0  0  0  0
   -3.5010    3.8815   -1.4868 N   0  0  0  0  0  0  0  0  0  0  0  0
   -4.8924    3.9423   -1.9486 C   0  0  1  0  0  0  0  0  0  0  0  0
   -5.8681    3.3951   -0.8914 C   0  0  0  0  0  0  0  0  0  0  0  0
   -5.4356    2.0878   -0.2612 C   0  0  0  0  0  0  0  0  0  0  0  0
   -5.3589    1.9776    1.1358 C   0  0  0  0  0  0  0  0  0  0  0  0
   -4.8945    0.8034    1.7292 C   0  0  0  0  0  0  0  0  0  0  0  0
   -4.5015   -0.2610    0.9300 C   0  0  0  0  0  0  0  0  0  0  0  0
   -4.0007   -1.3695    1.5447 O   0  0  0  0  0  0  0  0  0  0  0  0
   -4.6069   -0.1899   -0.4540 C   0  0  0  0  0  0  0  0  0  0  0  0
   -5.0848    0.9800   -1.0483 C   0  0  0  0  0  0  0  0  0  0  0  0
   -5.2407    5.3950   -2.2502 C   0  0  0  0  0  0  0  0  0  0  0  0
   -4.6711    6.3836   -1.8124 O   0  0  0  0  0  0  0  0  0  0  0  0
   -6.3148    5.5254   -3.0541 O   0  0  0  0  0  0  0  0  0  0  0  0
   -0.2209    4.2229   -1.7188 C   0  0  1  0  0  0  0  0  0  0  0  0
   -0.8698    5.6015   -1.7234 C   0  0  0  0  0  0  0  0  0  0  0  0
    0.8031    4.2760   -0.7122 O   0  0  0  0  0  0  0  0  0  0  0  0
    4.5244   -3.5380   -0.9555 C   0  0  0  0  0  0  0  0  0  0  0  0
    3.5912   -4.7276   -0.7288 C   0  0  0  0  0  0  0  0  0  0  0  0
    5.8314   -3.7483   -0.1841 C   0  0  0  0  0  0  0  0  0  0  0  0
    3.5809   -4.7923    2.7125 H   0  0  0  0  0  0  0  0  0  0  0  0
    2.8550   -4.7207    4.3281 H   0  0  0  0  0  0  0  0  0  0  0  0
    4.6050   -4.8745    4.1465 H   0  0  0  0  0  0  0  0  0  0  0  0
    4.7905   -2.6526    3.1678 H   0  0  0  0  0  0  0  0  0  0  0  0
    3.2078   -2.6084    5.7883 H   0  0  0  0  0  0  0  0  0  0  0  0
    4.2173   -1.2892    5.1665 H   0  0  0  0  0  0  0  0  0  0  0  0
    4.9525   -2.8366    5.6031 H   0  0  0  0  0  0  0  0  0  0  0  0
    2.8513   -1.0588    3.1254 H   0  0  0  0  0  0  0  0  0  0  0  0
    1.1365   -3.4030    3.3869 H   0  0  0  0  0  0  0  0  0  0  0  0
    0.6742   -1.8822    3.1724 H   0  0  0  0  0  0  0  0  0  0  0  0
    4.4289   -1.4560    1.2846 H   0  0  0  0  0  0  0  0  0  0  0  0
    4.6683   -1.4121   -0.9161 H   0  0  0  0  0  0  0  0  0  0  0  0
    2.0465   -0.4493   -0.1713 H   0  0  0  0  0  0  0  0  0  0  0  0
    1.1093   -0.0647   -2.8912 H   0  0  0  0  0  0  0  0  0  0  0  0
   -1.2294   -0.8486   -2.4812 H   0  0  0  0  0  0  0  0  0  0  0  0
   -0.0787   -2.1798   -2.4376 H   0  0  0  0  0  0  0  0  0  0  0  0
    0.0815   -2.4194    0.1159 H   0  0  0  0  0  0  0  0  0  0  0  0
   -1.0269    1.4046   -2.7669 H   0  0  0  0  0  0  0  0  0  0  0  0
   -1.3570    2.9446   -0.3590 H   0  0  0  0  0  0  0  0  0  0  0  0
   -3.2679    4.3829   -0.6367 H   0  0  0  0  0  0  0  0  0  0  0  0
   -4.9806    3.3755   -2.8822 H   0  0  0  0  0  0  0  0  0  0  0  0
   -5.9963    4.1475   -0.1011 H   0  0  0  0  0  0  0  0  0  0  0  0
   -6.8625    3.2589   -1.3357 H   0  0  0  0  0  0  0  0  0  0  0  0
   -5.6428    2.8095    1.7763 H   0  0  0  0  0  0  0  0  0  0  0  0
   -4.8194    0.7261    2.8101 H   0  0  0  0  0  0  0  0  0  0  0  0
   -3.4500   -1.8491    0.8987 H   0  0  0  0  0  0  0  0  0  0  0  0
   -4.3227   -1.0305   -1.0794 H   0  0  0  0  0  0  0  0  0  0  0  0
   -5.1530    1.0256   -2.1334 H   0  0  0  0  0  0  0  0  0  0  0  0
   -6.4173    6.4941   -3.1713 H   0  0  0  0  0  0  0  0  0  0  0  0
    0.2831    4.0722   -2.6809 H   0  0  0  0  0  0  0  0  0  0  0  0
   -0.1073    6.3790   -1.8478 H   0  0  0  0  0  0  0  0  0  0  0  0
   -1.5942    5.7102   -2.5355 H   0  0  0  0  0  0  0  0  0  0  0  0
   -1.3654    5.8061   -0.7683 H   0  0  0  0  0  0  0  0  0  0  0  0
    1.0518    3.3541   -0.4827 H   0  0  0  0  0  0  0  0  0  0  0  0
    4.7807   -3.5453   -2.0241 H   0  0  0  0  0  0  0  0  0  0  0  0
    2.6265   -4.5851   -1.2244 H   0  0  0  0  0  0  0  0  0  0  0  0
    3.4138   -4.9109    0.3337 H   0  0  0  0  0  0  0  0  0  0  0  0
    4.0373   -5.6403   -1.1402 H   0  0  0  0  0  0  0  0  0  0  0  0
    5.6579   -3.8117    0.8950 H   0  0  0  0  0  0  0  0  0  0  0  0
    6.5310   -2.9268   -0.3701 H   0  0  0  0  0  0  0  0  0  0  0  0
    6.3193   -4.6774   -0.4983 H   0  0  0  0  0  0  0  0  0  0  0  0
  1  2  1  0
  2  3  1  0
  2  4  1  0
  4  5  1  0
  4  6  1  0
  6  7  2  0
  6  8  1  0
  8  9  1  0
  9 10  1  0
 10 11  2  0
 10 12  1  0
 12 13  1  0
 13 14  1  0
 14 15  1  0
 13 16  1  0
 16 17  2  0
 16 18  1  0
 18 19  1  0
 19 20  1  0
 20 21  2  0
 20 22  1  0
 22 23  1  0
 23 24  1  0
 24 25  1  0
 25 26  2  0
 26 27  1  0
 27 28  2  0
 28 29  1  0
 28 30  1  0
 30 31  2  0
 23 32  1  0
 32 33  2  0
 32 34  1  0
 19 35  1  0
 35 36  1  0
 35 37  1  0
  9 38  1  0
 38 39  1  0
 38 40  1  0
 31 25  1  0
  1 41  1  0
  1 42  1  0
  1 43  1  0
  2 44  1  0
  3 45  1  0
  3 46  1  0
  3 47  1  0
  4 48  1  6
  5 49  1  0
  5 50  1  0
  8 51  1  0
  9 52  1  6
 12 53  1  0
 13 54  1  6
 14 55  1  0
 14 56  1  0
 15 57  1  0
 18 58  1  0
 19 59  1  1
 22 60  1  0
 23 61  1  6
 24 62  1  0
 24 63  1  0
 26 64  1  0
 27 65  1  0
 29 66  1  0
 30 67  1  0
 31 68  1  0
 34 69  1  0
 35 70  1  6
 36 71  1  0
 36 72  1  0
 36 73  1  0
 37 74  1  0
 38 75  1  0
 39 76  1  0
 39 77  1  0
 39 78  1  0
 40 79  1  0
 40 80  1  0
 40 81  1  0
M  END
$$$$
VVCTY.sdf
     RDKit          3D

 81 81  0  0  0  0  0  0  0  0999 V2000
    5.8198   -4.4167    3.5327 C   0  0  0  0  0  0  0  0  0  0  0  0
    6.3032   -3.5701    2.3481 C   0  0  0  0  0  0  0  0  0  0  0  0
    7.8308   -3.6786    2.2518 C   0  0  0  0  0  0  0  0  0  0  0  0
    5.6161   -4.0110    1.0333 C   0  0  2  0  0  0  0  0  0  0  0  0
    6.0870   -3.2173   -0.1234 N   0  0  0  0  0  0  0  0  0  0  0  0
    4.0714   -3.9160    1.0809 C   0  0  0  0  0  0  0  0  0  0  0  0
    3.3466   -4.8346    0.7063 O   0  0  0  0  0  0  0  0  0  0  0  0
    3.5816   -2.6957    1.5047 N   0  0  0  0  0  0  0  0  0  0  0  0
    2.1834   -2.3461    1.2770 C   0  0  2  0  0  0  0  0  0  0  0  0
    2.1098   -1.6179   -0.0849 C   0  0  0  0  0  0  0  0  0  0  0  0
    3.0964   -1.1036   -0.6134 O   0  0  0  0  0  0  0  0  0  0  0  0
    0.8500   -1.5577   -0.6438 N   0  0  0  0  0  0  0  0  0  0  0  0
    0.5870   -0.6505   -1.7601 C   0  0  1  0  0  0  0  0  0  0  0  0
   -0.4511   -1.2056   -2.7425 C   0  0  0  0  0  0  0  0  0  0  0  0
   -2.0065   -1.7551   -1.9622 S   0  0  0  0  0  0  0  0  0  0  0  0
    0.1534    0.7115   -1.1788 C   0  0  0  0  0  0  0  0  0  0  0  0
   -0.2973    0.8336   -0.0389 O   0  0  0  0  0  0  0  0  0  0  0  0
    0.2853    1.7863   -2.0337 N   0  0  0  0  0  0  0  0  0  0  0  0
   -0.1749    3.1313   -1.6351 C   0  0  2  0  0  0  0  0  0  0  0  0
   -1.6756    3.2401   -1.9704 C   0  0  0  0  0  0  0  0  0  0  0  0
   -2.1156    3.9406   -2.8764 O   0  0  0  0  0  0  0  0  0  0  0  0
   -2.4820    2.4414   -1.1846 N   0  0  0  0  0  0  0  0  0  0  0  0
   -3.9412    2.6030   -1.1804 C   0  0  1  0  0  0  0  0  0  0  0  0
   -4.6221    1.2845   -0.7966 C   0  0  0  0  0  0  0  0  0  0  0  0
   -6.1284    1.3217   -0.8942 C   0  0  0  0  0  0  0  0  0  0  0  0
   -6.7603    1.3243   -2.1465 C   0  0  0  0  0  0  0  0  0  0  0  0
   -8.1531    1.3735   -2.2383 C   0  0  0  0  0  0  0  0  0  0  0  0
   -8.9142    1.4191   -1.0752 C   0  0  0  0  0  0  0  0  0  0  0  0
  -10.2760    1.4690   -1.1184 O   0  0  0  0  0  0  0  0  0  0  0  0
   -8.3060    1.4149    0.1736 C   0  0  0  0  0  0  0  0  0  0  0  0
   -6.9145    1.3663    0.2660 C   0  0  0  0  0  0  0  0  0  0  0  0
   -4.2712    3.6834   -0.1519 C   0  0  0  0  0  0  0  0  0  0  0  0
   -3.7193    3.8390    0.9286 O   0  0  0  0  0  0  0  0  0  0  0  0
   -5.2752    4.4974   -0.5307 O   0  0  0  0  0  0  0  0  0  0  0  0
    0.6630    4.2063   -2.3552 C   0  0  1  0  0  0  0  0  0  0  0  0
    0.3934    5.6122   -1.8330 C   0  0  0  0  0  0  0  0  0  0  0  0
    2.0631    3.9495   -2.1520 O   0  0  0  0  0  0  0  0  0  0  0  0
    1.5959   -1.4815    2.4146 C   0  0  0  0  0  0  0  0  0  0  0  0
    2.3647   -0.1769    2.6490 C   0  0  0  0  0  0  0  0  0  0  0  0
    1.5188   -2.2808    3.7191 C   0  0  0  0  0  0  0  0  0  0  0  0
    6.0237   -5.4804    3.3687 H   0  0  0  0  0  0  0  0  0  0  0  0
    6.3252   -4.1151    4.4566 H   0  0  0  0  0  0  0  0  0  0  0  0
    4.7445   -4.2986    3.6980 H   0  0  0  0  0  0  0  0  0  0  0  0
    6.0603   -2.5224    2.5663 H   0  0  0  0  0  0  0  0  0  0  0  0
    8.1410   -4.7006    2.0089 H   0  0  0  0  0  0  0  0  0  0  0  0
    8.2318   -3.0086    1.4848 H   0  0  0  0  0  0  0  0  0  0  0  0
    8.2999   -3.4007    3.2020 H   0  0  0  0  0  0  0  0  0  0  0  0
    5.8662   -5.0624    0.8420 H   0  0  0  0  0  0  0  0  0  0  0  0
    5.7192   -2.2671   -0.0760 H   0  0  0  0  0  0  0  0  0  0  0  0
    5.6723   -3.6151   -0.9691 H   0  0  0  0  0  0  0  0  0  0  0  0
    4.2320   -1.9215    1.4423 H   0  0  0  0  0  0  0  0  0  0  0  0
    1.5931   -3.2663    1.1841 H   0  0  0  0  0  0  0  0  0  0  0  0
    0.0675   -1.6927   -0.0116 H   0  0  0  0  0  0  0  0  0  0  0  0
    1.5215   -0.4823   -2.3095 H   0  0  0  0  0  0  0  0  0  0  0  0
   -0.0333   -2.0725   -3.2656 H   0  0  0  0  0  0  0  0  0  0  0  0
   -0.7064   -0.4553   -3.4976 H   0  0  0  0  0  0  0  0  0  0  0  0
   -1.5159   -2.8831   -1.4247 H   0  0  0  0  0  0  0  0  0  0  0  0
    0.3606    1.6116   -3.0296 H   0  0  0  0  0  0  0  0  0  0  0  0
   -0.0442    3.2333   -0.5507 H   0  0  0  0  0  0  0  0  0  0  0  0
   -2.0564    2.0550   -0.3407 H   0  0  0  0  0  0  0  0  0  0  0  0
   -4.2566    2.9471   -2.1719 H   0  0  0  0  0  0  0  0  0  0  0  0
   -4.3255    0.9871    0.2185 H   0  0  0  0  0  0  0  0  0  0  0  0
   -4.2618    0.4809   -1.4511 H   0  0  0  0  0  0  0  0  0  0  0  0
   -6.1707    1.2880   -3.0604 H   0  0  0  0  0  0  0  0  0  0  0  0
   -8.6205    1.3760   -3.2177 H   0  0  0  0  0  0  0  0  0  0  0  0
  -10.5552    1.4675   -2.0485 H   0  0  0  0  0  0  0  0  0  0  0  0
   -8.9137    1.4493    1.0733 H   0  0  0  0  0  0  0  0  0  0  0  0
   -6.4520    1.3647    1.2508 H   0  0  0  0  0  0  0  0  0  0  0  0
   -5.3865    5.1234    0.2142 H   0  0  0  0  0  0  0  0  0  0  0  0
    0.4877    4.1738   -3.4367 H   0  0  0  0  0  0  0  0  0  0  0  0
    0.6165    5.6797   -0.7623 H   0  0  0  0  0  0  0  0  0  0  0  0
    1.0479    6.3346   -2.3333 H   0  0  0  0  0  0  0  0  0  0  0  0
   -0.6428    5.9213   -1.9928 H   0  0  0  0  0  0  0  0  0  0  0  0
    2.1783    2.9850   -2.0775 H   0  0  0  0  0  0  0  0  0  0  0  0
    0.5688   -1.2053    2.1436 H   0  0  0  0  0  0  0  0  0  0  0  0
    3.3924   -0.3638    2.9770 H   0  0  0  0  0  0  0  0  0  0  0  0
    2.3999    0.4335    1.7414 H   0  0  0  0  0  0  0  0  0  0  0  0
    1.8743    0.4209    3.4252 H   0  0  0  0  0  0  0  0  0  0  0  0
    2.5141   -2.5544    4.0848 H   0  0  0  0  0  0  0  0  0  0  0  0
    1.0236   -1.6961    4.5018 H   0  0  0  0  0  0  0  0  0  0  0  0
    0.9429   -3.2015    3.5776 H   0  0  0  0  0  0  0  0  0  0  0  0
  1  2  1  0
  2  3  1  0
  2  4  1  0
  4  5  1  0
  4  6  1  0
  6  7  2  0
  6  8  1  0
  8  9  1  0
  9 10  1  0
 10 11  2  0
 10 12  1  0
 12 13  1  0
 13 14  1  0
 14 15  1  0
 13 16  1  0
 16 17  2  0
 16 18  1  0
 18 19  1  0
 19 20  1  0
 20 21  2  0
 20 22  1  0
 22 23  1  0
 23 24  1  0
 24 25  1  0
 25 26  2  0
 26 27  1  0
 27 28  2  0
 28 29  1  0
 28 30  1  0
 30 31  2  0
 23 32  1  0
 32 33  2  0
 32 34  1  0
 19 35  1  0
 35 36  1  0
 35 37  1  0
  9 38  1  0
 38 39  1  0
 38 40  1  0
 31 25  1  0
  1 41  1  0
  1 42  1  0
  1 43  1  0
  2 44  1  0
  3 45  1  0
  3 46  1  0
  3 47  1  0
  4 48  1  6
  5 49  1  0
  5 50  1  0
  8 51  1  0
  9 52  1  6
 12 53  1  0
 13 54  1  6
 14 55  1  0
 14 56  1  0
 15 57  1  0
 18 58  1  0
 19 59  1  1
 22 60  1  0
 23 61  1  6
 24 62  1  0
 24 63  1  0
 26 64  1  0
 27 65  1  0
 29 66  1  0
 30 67  1  0
 31 68  1  0
 34 69  1  0
 35 70  1  6
 36 71  1  0
 36 72  1  0
 36 73  1  0
 37 74  1  0
 38 75  1  0
 39 76  1  0
 39 77  1  0
 39 78  1  0
 40 79  1  0
 40 80  1  0
 40 81  1  0
M  END
$$$$
VVCTY.sdf
     RDKit          3D

 81 81  0  0  0  0  0  0  0  0999 V2000
    7.3254   -4.4146    2.3070 C   0  0  0  0  0  0  0  0  0  0  0  0
    5.9680   -4.3031    1.5998 C   0  0  0  0  0  0  0  0  0  0  0  0
    6.2028   -3.7782    0.1760 C   0  0  0  0  0  0  0  0  0  0  0  0
    4.9833   -3.3902    2.3684 C   0  0  2  0  0  0  0  0  0  0  0  0
    4.8619   -3.7965    3.7878 N   0  0  0  0  0  0  0  0  0  0  0  0
    3.5541   -3.4125    1.7624 C   0  0  0  0  0  0  0  0  0  0  0  0
    3.1459   -4.2747    0.9912 O   0  0  0  0  0  0  0  0  0  0  0  0
    2.7500   -2.3928    2.2493 N   0  0  0  0  0  0  0  0  0  0  0  0
    1.4508   -2.1254    1.6266 C   0  0  2  0  0  0  0  0  0  0  0  0
    1.7097   -1.1159    0.4847 C   0  0  0  0  0  0  0  0  0  0  0  0
    2.6465   -0.3164    0.5180 O   0  0  0  0  0  0  0  0  0  0  0  0
    0.8166   -1.1646   -0.5596 N   0  0  0  0  0  0  0  0  0  0  0  0
    0.8445   -0.1577   -1.6175 C   0  0  1  0  0  0  0  0  0  0  0  0
    0.3556   -0.7217   -2.9587 C   0  0  0  0  0  0  0  0  0  0  0  0
   -1.3065   -1.4796   -2.8781 S   0  0  0  0  0  0  0  0  0  0  0  0
    0.0198    1.0776   -1.1991 C   0  0  0  0  0  0  0  0  0  0  0  0
   -0.8320    1.0541   -0.3106 O   0  0  0  0  0  0  0  0  0  0  0  0
    0.2791    2.2122   -1.9289 N   0  0  0  0  0  0  0  0  0  0  0  0
   -0.4407    3.4683   -1.7172 C   0  0  2  0  0  0  0  0  0  0  0  0
   -1.7247    3.4244   -2.5677 C   0  0  0  0  0  0  0  0  0  0  0  0
   -1.8430    4.0429   -3.6250 O   0  0  0  0  0  0  0  0  0  0  0  0
   -2.7055    2.5855   -2.0786 N   0  0  0  0  0  0  0  0  0  0  0  0
   -4.0583    2.6180   -2.6377 C   0  0  1  0  0  0  0  0  0  0  0  0
   -4.8151    1.2959   -2.4340 C   0  0  0  0  0  0  0  0  0  0  0  0
   -5.1637    0.9604   -1.0005 C   0  0  0  0  0  0  0  0  0  0  0  0
   -4.2554    0.2746   -0.1823 C   0  0  0  0  0  0  0  0  0  0  0  0
   -4.5741   -0.0150    1.1465 C   0  0  0  0  0  0  0  0  0  0  0  0
   -5.8069    0.3752    1.6567 C   0  0  0  0  0  0  0  0  0  0  0  0
   -6.1575    0.1131    2.9478 O   0  0  0  0  0  0  0  0  0  0  0  0
   -6.7248    1.0456    0.8596 C   0  0  0  0  0  0  0  0  0  0  0  0
   -6.4054    1.3372   -0.4671 C   0  0  0  0  0  0  0  0  0  0  0  0
   -4.8201    3.8144   -2.0597 C   0  0  0  0  0  0  0  0  0  0  0  0
   -4.4381    4.5730   -1.1803 O   0  0  0  0  0  0  0  0  0  0  0  0
   -6.0197    4.0130   -2.6470 O   0  0  0  0  0  0  0  0  0  0  0  0
    0.4280    4.6689   -2.1455 C   0  0  1  0  0  0  0  0  0  0  0  0
    1.5939    4.8947   -1.1904 C   0  0  0  0  0  0  0  0  0  0  0  0
    0.9774    4.4358   -3.4531 O   0  0  0  0  0  0  0  0  0  0  0  0
    0.4390   -1.6295    2.6833 C   0  0  0  0  0  0  0  0  0  0  0  0
    0.7241   -0.2130    3.1915 C   0  0  0  0  0  0  0  0  0  0  0  0
   -1.0061   -1.7262    2.1908 C   0  0  0  0  0  0  0  0  0  0  0  0
    7.7764   -3.4276    2.4565 H   0  0  0  0  0  0  0  0  0  0  0  0
    7.2300   -4.8987    3.2841 H   0  0  0  0  0  0  0  0  0  0  0  0
    8.0228   -5.0182    1.7158 H   0  0  0  0  0  0  0  0  0  0  0  0
    5.5454   -5.3135    1.5204 H   0  0  0  0  0  0  0  0  0  0  0  0
    6.6277   -2.7686    0.1924 H   0  0  0  0  0  0  0  0  0  0  0  0
    5.2753   -3.7436   -0.4027 H   0  0  0  0  0  0  0  0  0  0  0  0
    6.8993   -4.4274   -0.3657 H   0  0  0  0  0  0  0  0  0  0  0  0
    5.3509   -2.3569    2.3389 H   0  0  0  0  0  0  0  0  0  0  0  0
    4.0990   -3.2692    4.2143 H   0  0  0  0  0  0  0  0  0  0  0  0
    4.5606   -4.7726    3.8131 H   0  0  0  0  0  0  0  0  0  0  0  0
    3.2515   -1.5655    2.5571 H   0  0  0  0  0  0  0  0  0  0  0  0
    1.0841   -3.0583    1.1817 H   0  0  0  0  0  0  0  0  0  0  0  0
   -0.0659   -1.6450   -0.4252 H   0  0  0  0  0  0  0  0  0  0  0  0
    1.8817    0.1777   -1.7441 H   0  0  0  0  0  0  0  0  0  0  0  0
    1.0449   -1.5021   -3.2990 H   0  0  0  0  0  0  0  0  0  0  0  0
    0.3317    0.0571   -3.7276 H   0  0  0  0  0  0  0  0  0  0  0  0
   -1.3427   -1.9032   -4.1510 H   0  0  0  0  0  0  0  0  0  0  0  0
    0.9505    2.2140   -2.6904 H   0  0  0  0  0  0  0  0  0  0  0  0
   -0.7295    3.5649   -0.6637 H   0  0  0  0  0  0  0  0  0  0  0  0
   -2.5968    2.2682   -1.1165 H   0  0  0  0  0  0  0  0  0  0  0  0
   -3.9589    2.7998   -3.7152 H   0  0  0  0  0  0  0  0  0  0  0  0
   -5.7439    1.3151   -3.0196 H   0  0  0  0  0  0  0  0  0  0  0  0
   -4.2255    0.4698   -2.8528 H   0  0  0  0  0  0  0  0  0  0  0  0
   -3.2901   -0.0412   -0.5729 H   0  0  0  0  0  0  0  0  0  0  0  0
   -3.8522   -0.5416    1.7612 H   0  0  0  0  0  0  0  0  0  0  0  0
   -5.4168   -0.3408    3.3816 H   0  0  0  0  0  0  0  0  0  0  0  0
   -7.6864    1.3405    1.2696 H   0  0  0  0  0  0  0  0  0  0  0  0
   -7.1369    1.8590   -1.0804 H   0  0  0  0  0  0  0  0  0  0  0  0
   -6.3626    4.8175   -2.2023 H   0  0  0  0  0  0  0  0  0  0  0  0
   -0.1716    5.5859   -2.1899 H   0  0  0  0  0  0  0  0  0  0  0  0
    1.2421    5.0806   -0.1712 H   0  0  0  0  0  0  0  0  0  0  0  0
    2.1880    5.7557   -1.5157 H   0  0  0  0  0  0  0  0  0  0  0  0
    2.2736    4.0358   -1.1782 H   0  0  0  0  0  0  0  0  0  0  0  0
    0.2179    4.4999   -4.0708 H   0  0  0  0  0  0  0  0  0  0  0  0
    0.5177   -2.3023    3.5490 H   0  0  0  0  0  0  0  0  0  0  0  0
    0.5979    0.5345    2.4016 H   0  0  0  0  0  0  0  0  0  0  0  0
    1.7416   -0.1279    3.5853 H   0  0  0  0  0  0  0  0  0  0  0  0
    0.0357    0.0473    4.0032 H   0  0  0  0  0  0  0  0  0  0  0  0
   -1.2255   -2.7282    1.8082 H   0  0  0  0  0  0  0  0  0  0  0  0
   -1.7031   -1.5262    3.0121 H   0  0  0  0  0  0  0  0  0  0  0  0
   -1.2166   -1.0020    1.3999 H   0  0  0  0  0  0  0  0  0  0  0  0
  1  2  1  0
  2  3  1  0
  2  4  1  0
  4  5  1  0
  4  6  1  0
  6  7  2  0
  6  8  1  0
  8  9  1  0
  9 10  1  0
 10 11  2  0
 10 12  1  0
 12 13  1  0
 13 14  1  0
 14 15  1  0
 13 16  1  0
 16 17  2  0
 16 18  1  0
 18 19  1  0
 19 20  1  0
 20 21  2  0
 20 22  1  0
 22 23  1  0
 23 24  1  0
 24 25  1  0
 25 26  2  0
 26 27  1  0
 27 28  2  0
 28 29  1  0
 28 30  1  0
 30 31  2  0
 23 32  1  0
 32 33  2  0
 32 34  1  0
 19 35  1  0
 35 36  1  0
 35 37  1  0
  9 38  1  0
 38 39  1  0
 38 40  1  0
 31 25  1  0
  1 41  1  0
  1 42  1  0
  1 43  1  0
  2 44  1  0
  3 45  1  0
  3 46  1  0
  3 47  1  0
  4 48  1  1
  5 49  1  0
  5 50  1  0
  8 51  1  0
  9 52  1  6
 12 53  1  0
 13 54  1  6
 14 55  1  0
 14 56  1  0
 15 57  1  0
 18 58  1  0
 19 59  1  1
 22 60  1  0
 23 61  1  6
 24 62  1  0
 24 63  1  0
 26 64  1  0
 27 65  1  0
 29 66  1  0
 30 67  1  0
 31 68  1  0
 34 69  1  0
 35 70  1  6
 36 71  1  0
 36 72  1  0
 36 73  1  0
 37 74  1  0
 38 75  1  0
 39 76  1  0
 39 77  1  0
 39 78  1  0
 40 79  1  0
 40 80  1  0
 40 81  1  0
M  END
$$$$
VVCTY.sdf
     RDKit          3D

 81 81  0  0  0  0  0  0  0  0999 V2000
    3.7312   -6.0296    1.0538 C   0  0  0  0  0  0  0  0  0  0  0  0
    5.0638   -5.3409    1.3678 C   0  0  0  0  0  0  0  0  0  0  0  0
    5.3289   -5.3653    2.8761 C   0  0  0  0  0  0  0  0  0  0  0  0
    5.1539   -3.9294    0.7436 C   0  0  2  0  0  0  0  0  0  0  0  0
    6.5483   -3.4091    0.7624 N   0  0  0  0  0  0  0  0  0  0  0  0
    4.2052   -2.8741    1.3781 C   0  0  0  0  0  0  0  0  0  0  0  0
    3.0906   -3.1221    1.8287 O   0  0  0  0  0  0  0  0  0  0  0  0
    4.6986   -1.5892    1.3017 N   0  0  0  0  0  0  0  0  0  0  0  0
    3.9209   -0.4108    1.6783 C   0  0  2  0  0  0  0  0  0  0  0  0
    3.0311   -0.0558    0.4589 C   0  0  0  0  0  0  0  0  0  0  0  0
    3.1752    0.9512   -0.2290 O   0  0  0  0  0  0  0  0  0  0  0  0
    2.0534   -0.9970    0.1984 N   0  0  0  0  0  0  0  0  0  0  0  0
    1.0011   -0.7362   -0.7780 C   0  0  1  0  0  0  0  0  0  0  0  0
    0.3591   -2.0269   -1.2968 C   0  0  0  0  0  0  0  0  0  0  0  0
    1.5631   -3.1019   -2.1467 S   0  0  0  0  0  0  0  0  0  0  0  0
   -0.0938    0.1055   -0.0976 C   0  0  0  0  0  0  0  0  0  0  0  0
   -0.3029    0.0793    1.1142 O   0  0  0  0  0  0  0  0  0  0  0  0
   -0.8567    0.8551   -0.9583 N   0  0  0  0  0  0  0  0  0  0  0  0
   -1.9627    1.6969   -0.5048 C   0  0  2  0  0  0  0  0  0  0  0  0
   -2.7923    2.0814   -1.7476 C   0  0  0  0  0  0  0  0  0  0  0  0
   -2.4522    1.7612   -2.8869 O   0  0  0  0  0  0  0  0  0  0  0  0
   -3.9428    2.7852   -1.4738 N   0  0  0  0  0  0  0  0  0  0  0  0
   -4.7750    3.3251   -2.5504 C   0  0  1  0  0  0  0  0  0  0  0  0
   -6.2270    3.5269   -2.1005 C   0  0  0  0  0  0  0  0  0  0  0  0
   -6.9501    2.2250   -1.8431 C   0  0  0  0  0  0  0  0  0  0  0  0
   -7.0437    1.7051   -0.5438 C   0  0  0  0  0  0  0  0  0  0  0  0
   -7.6975    0.4931   -0.3099 C   0  0  0  0  0  0  0  0  0  0  0  0
   -8.2565   -0.1999   -1.3783 C   0  0  0  0  0  0  0  0  0  0  0  0
   -8.9030   -1.3864   -1.1953 O   0  0  0  0  0  0  0  0  0  0  0  0
   -8.1708    0.2980   -2.6723 C   0  0  0  0  0  0  0  0  0  0  0  0
   -7.5167    1.5082   -2.9067 C   0  0  0  0  0  0  0  0  0  0  0  0
   -4.2124    4.6797   -2.9747 C   0  0  0  0  0  0  0  0  0  0  0  0
   -3.5612    5.4496   -2.2839 O   0  0  0  0  0  0  0  0  0  0  0  0
   -4.5462    5.0171   -4.2377 O   0  0  0  0  0  0  0  0  0  0  0  0
   -1.4992    2.9377    0.2921 C   0  0  1  0  0  0  0  0  0  0  0  0
   -0.6333    3.8983   -0.5178 C   0  0  0  0  0  0  0  0  0  0  0  0
   -2.6408    3.6500    0.7990 O   0  0  0  0  0  0  0  0  0  0  0  0
    4.8357    0.7575    2.1099 C   0  0  0  0  0  0  0  0  0  0  0  0
    4.0125    1.9230    2.6745 C   0  0  0  0  0  0  0  0  0  0  0  0
    5.8532    0.3193    3.1720 C   0  0  0  0  0  0  0  0  0  0  0  0
    3.7698   -7.0840    1.3491 H   0  0  0  0  0  0  0  0  0  0  0  0
    2.8919   -5.5744    1.5865 H   0  0  0  0  0  0  0  0  0  0  0  0
    3.5164   -5.9955   -0.0194 H   0  0  0  0  0  0  0  0  0  0  0  0
    5.8408   -5.9581    0.8947 H   0  0  0  0  0  0  0  0  0  0  0  0
    4.5828   -4.7863    3.4292 H   0  0  0  0  0  0  0  0  0  0  0  0
    6.3182   -4.9643    3.1162 H   0  0  0  0  0  0  0  0  0  0  0  0
    5.2954   -6.3933    3.2536 H   0  0  0  0  0  0  0  0  0  0  0  0
    4.8627   -3.9908   -0.3128 H   0  0  0  0  0  0  0  0  0  0  0  0
    7.1634   -4.1120    0.3507 H   0  0  0  0  0  0  0  0  0  0  0  0
    6.8486   -3.3173    1.7342 H   0  0  0  0  0  0  0  0  0  0  0  0
    5.5341   -1.4840    0.7286 H   0  0  0  0  0  0  0  0  0  0  0  0
    3.2577   -0.6824    2.5099 H   0  0  0  0  0  0  0  0  0  0  0  0
    1.8578   -1.6605    0.9488 H   0  0  0  0  0  0  0  0  0  0  0  0
    1.4223   -0.1526   -1.6061 H   0  0  0  0  0  0  0  0  0  0  0  0
   -0.0738   -2.6010   -0.4696 H   0  0  0  0  0  0  0  0  0  0  0  0
   -0.4517   -1.8045   -1.9985 H   0  0  0  0  0  0  0  0  0  0  0  0
    2.4372   -3.1535   -1.1299 H   0  0  0  0  0  0  0  0  0  0  0  0
   -0.6773    0.8522   -1.9600 H   0  0  0  0  0  0  0  0  0  0  0  0
   -2.6108    1.0795    0.1309 H   0  0  0  0  0  0  0  0  0  0  0  0
   -3.9209    3.3043   -0.5932 H   0  0  0  0  0  0  0  0  0  0  0  0
   -4.7125    2.6452   -3.4085 H   0  0  0  0  0  0  0  0  0  0  0  0
   -6.2632    4.1495   -1.1960 H   0  0  0  0  0  0  0  0  0  0  0  0
   -6.7872    4.0890   -2.8598 H   0  0  0  0  0  0  0  0  0  0  0  0
   -6.6027    2.2390    0.2951 H   0  0  0  0  0  0  0  0  0  0  0  0
   -7.7571    0.1094    0.7034 H   0  0  0  0  0  0  0  0  0  0  0  0
   -8.8693   -1.6133   -0.2518 H   0  0  0  0  0  0  0  0  0  0  0  0
   -8.6094   -0.2560   -3.4974 H   0  0  0  0  0  0  0  0  0  0  0  0
   -7.4521    1.8848   -3.9251 H   0  0  0  0  0  0  0  0  0  0  0  0
   -4.1043    5.8805   -4.3817 H   0  0  0  0  0  0  0  0  0  0  0  0
   -0.9258    2.6103    1.1666 H   0  0  0  0  0  0  0  0  0  0  0  0
   -0.3232    4.7446    0.1050 H   0  0  0  0  0  0  0  0  0  0  0  0
   -1.1858    4.3234   -1.3611 H   0  0  0  0  0  0  0  0  0  0  0  0
    0.2666    3.4064   -0.8985 H   0  0  0  0  0  0  0  0  0  0  0  0
   -2.2926    4.3748    1.3521 H   0  0  0  0  0  0  0  0  0  0  0  0
    5.3971    1.1231    1.2401 H   0  0  0  0  0  0  0  0  0  0  0  0
    4.6671    2.7473    2.9778 H   0  0  0  0  0  0  0  0  0  0  0  0
    3.4365    1.6107    3.5526 H   0  0  0  0  0  0  0  0  0  0  0  0
    3.3103    2.3212    1.9366 H   0  0  0  0  0  0  0  0  0  0  0  0
    6.5449   -0.4319    2.7778 H   0  0  0  0  0  0  0  0  0  0  0  0
    5.3523   -0.1045    4.0491 H   0  0  0  0  0  0  0  0  0  0  0  0
    6.4571    1.1702    3.5057 H   0  0  0  0  0  0  0  0  0  0  0  0
  1  2  1  0
  2  3  1  0
  2  4  1  0
  4  5  1  0
  4  6  1  0
  6  7  2  0
  6  8  1  0
  8  9  1  0
  9 10  1  0
 10 11  2  0
 10 12  1  0
 12 13  1  0
 13 14  1  0
 14 15  1  0
 13 16  1  0
 16 17  2  0
 16 18  1  0
 18 19  1  0
 19 20  1  0
 20 21  2  0
 20 22  1  0
 22 23  1  0
 23 24  1  0
 24 25  1  0
 25 26  2  0
 26 27  1  0
 27 28  2  0
 28 29  1  0
 28 30  1  0
 30 31  2  0
 23 32  1  0
 32 33  2  0
 32 34  1  0
 19 35  1  0
 35 36  1  0
 35 37  1  0
  9 38  1  0
 38 39  1  0
 38 40  1  0
 31 25  1  0
  1 41  1  0
  1 42  1  0
  1 43  1  0
  2 44  1  0
  3 45  1  0
  3 46  1  0
  3 47  1  0
  4 48  1  6
  5 49  1  0
  5 50  1  0
  8 51  1  0
  9 52  1  1
 12 53  1  0
 13 54  1  6
 14 55  1  0
 14 56  1  0
 15 57  1  0
 18 58  1  0
 19 59  1  1
 22 60  1  0
 23 61  1  6
 24 62  1  0
 24 63  1  0
 26 64  1  0
 27 65  1  0
 29 66  1  0
 30 67  1  0
 31 68  1  0
 34 69  1  0
 35 70  1  1
 36 71  1  0
 36 72  1  0
 36 73  1  0
 37 74  1  0
 38 75  1  0
 39 76  1  0
 39 77  1  0
 39 78  1  0
 40 79  1  0
 40 80  1  0
 40 81  1  0
M  END
$$$$
VVCTY.sdf
     RDKit          3D

 81 81  0  0  0  0  0  0  0  0999 V2000
    5.3141   -4.2807   -0.7099 C   0  0  0  0  0  0  0  0  0  0  0  0
    6.6369   -4.3191    0.0615 C   0  0  0  0  0  0  0  0  0  0  0  0
    6.5924   -5.4468    1.0989 C   0  0  0  0  0  0  0  0  0  0  0  0
    7.0079   -2.9379    0.6513 C   0  0  2  0  0  0  0  0  0  0  0  0
    8.3807   -2.9495    1.2066 N   0  0  0  0  0  0  0  0  0  0  0  0
    6.0304   -2.4619    1.7546 C   0  0  0  0  0  0  0  0  0  0  0  0
    6.2176   -2.6970    2.9475 O   0  0  0  0  0  0  0  0  0  0  0  0
    4.9587   -1.7355    1.2963 N   0  0  0  0  0  0  0  0  0  0  0  0
    3.8672   -1.3135    2.1683 C   0  0  2  0  0  0  0  0  0  0  0  0
    2.5462   -1.6613    1.4475 C   0  0  0  0  0  0  0  0  0  0  0  0
    2.5027   -1.9008    0.2407 O   0  0  0  0  0  0  0  0  0  0  0  0
    1.4222   -1.6538    2.2495 N   0  0  0  0  0  0  0  0  0  0  0  0
    0.0894   -1.6509    1.6323 C   0  0  1  0  0  0  0  0  0  0  0  0
   -0.9320   -2.3256    2.5516 C   0  0  0  0  0  0  0  0  0  0  0  0
   -2.5119   -2.6910    1.7210 S   0  0  0  0  0  0  0  0  0  0  0  0
   -0.2642   -0.1659    1.4223 C   0  0  0  0  0  0  0  0  0  0  0  0
    0.1847    0.7247    2.1476 O   0  0  0  0  0  0  0  0  0  0  0  0
   -1.1212    0.1035    0.3911 N   0  0  0  0  0  0  0  0  0  0  0  0
   -1.5654    1.4596    0.0330 C   0  0  2  0  0  0  0  0  0  0  0  0
   -2.7131    1.2696   -0.9725 C   0  0  0  0  0  0  0  0  0  0  0  0
   -2.7159    0.3470   -1.7857 O   0  0  0  0  0  0  0  0  0  0  0  0
   -3.7353    2.1887   -0.8757 N   0  0  0  0  0  0  0  0  0  0  0  0
   -4.8321    2.2123   -1.8571 C   0  0  1  0  0  0  0  0  0  0  0  0
   -6.1380    2.6371   -1.1746 C   0  0  0  0  0  0  0  0  0  0  0  0
   -7.3531    2.5380   -2.0648 C   0  0  0  0  0  0  0  0  0  0  0  0
   -7.9568    3.6957   -2.5779 C   0  0  0  0  0  0  0  0  0  0  0  0
   -9.0759    3.6035   -3.4088 C   0  0  0  0  0  0  0  0  0  0  0  0
   -9.5908    2.3515   -3.7269 C   0  0  0  0  0  0  0  0  0  0  0  0
  -10.6815    2.2153   -4.5335 O   0  0  0  0  0  0  0  0  0  0  0  0
   -9.0060    1.1944   -3.2284 C   0  0  0  0  0  0  0  0  0  0  0  0
   -7.8884    1.2856   -2.3978 C   0  0  0  0  0  0  0  0  0  0  0  0
   -4.4524    3.2265   -2.9319 C   0  0  0  0  0  0  0  0  0  0  0  0
   -3.9246    4.3116   -2.7294 O   0  0  0  0  0  0  0  0  0  0  0  0
   -4.7597    2.8336   -4.1814 O   0  0  0  0  0  0  0  0  0  0  0  0
   -0.3982    2.3107   -0.5248 C   0  0  1  0  0  0  0  0  0  0  0  0
   -0.8114    3.4635   -1.4306 C   0  0  0  0  0  0  0  0  0  0  0  0
    0.3311    2.9092    0.5597 O   0  0  0  0  0  0  0  0  0  0  0  0
    3.9381    0.1883    2.5304 C   0  0  0  0  0  0  0  0  0  0  0  0
    5.1549    0.4960    3.4075 C   0  0  0  0  0  0  0  0  0  0  0  0
    3.9395    1.1020    1.2996 C   0  0  0  0  0  0  0  0  0  0  0  0
    5.3109   -3.4682   -1.4438 H   0  0  0  0  0  0  0  0  0  0  0  0
    5.1620   -5.2188   -1.2551 H   0  0  0  0  0  0  0  0  0  0  0  0
    4.4576   -4.1484   -0.0417 H   0  0  0  0  0  0  0  0  0  0  0  0
    7.4161   -4.5819   -0.6680 H   0  0  0  0  0  0  0  0  0  0  0  0
    5.8184   -5.2718    1.8529 H   0  0  0  0  0  0  0  0  0  0  0  0
    6.3701   -6.4038    0.6138 H   0  0  0  0  0  0  0  0  0  0  0  0
    7.5521   -5.5603    1.6120 H   0  0  0  0  0  0  0  0  0  0  0  0
    7.0015   -2.1931   -0.1544 H   0  0  0  0  0  0  0  0  0  0  0  0
    8.5979   -2.0062    1.5326 H   0  0  0  0  0  0  0  0  0  0  0  0
    8.3511   -3.4978    2.0719 H   0  0  0  0  0  0  0  0  0  0  0  0
    4.7618   -1.7140    0.2996 H   0  0  0  0  0  0  0  0  0  0  0  0
    3.8960   -1.9136    3.0866 H   0  0  0  0  0  0  0  0  0  0  0  0
    1.4966   -1.1301    3.1158 H   0  0  0  0  0  0  0  0  0  0  0  0
    0.1454   -2.1582    0.6624 H   0  0  0  0  0  0  0  0  0  0  0  0
   -1.1437   -1.7026    3.4279 H   0  0  0  0  0  0  0  0  0  0  0  0
   -0.5327   -3.2775    2.9189 H   0  0  0  0  0  0  0  0  0  0  0  0
   -3.0884   -3.3212    2.7560 H   0  0  0  0  0  0  0  0  0  0  0  0
   -1.4232   -0.6491   -0.2271 H   0  0  0  0  0  0  0  0  0  0  0  0
   -1.9584    1.9121    0.9520 H   0  0  0  0  0  0  0  0  0  0  0  0
   -3.5351    3.0682   -0.4098 H   0  0  0  0  0  0  0  0  0  0  0  0
   -4.9213    1.2206   -2.3142 H   0  0  0  0  0  0  0  0  0  0  0  0
   -6.3128    2.0109   -0.2890 H   0  0  0  0  0  0  0  0  0  0  0  0
   -6.0468    3.6619   -0.7892 H   0  0  0  0  0  0  0  0  0  0  0  0
   -7.5605    4.6796   -2.3348 H   0  0  0  0  0  0  0  0  0  0  0  0
   -9.5278    4.5120   -3.7940 H   0  0  0  0  0  0  0  0  0  0  0  0
  -10.9810    3.0991   -4.8017 H   0  0  0  0  0  0  0  0  0  0  0  0
   -9.4185    0.2230   -3.4860 H   0  0  0  0  0  0  0  0  0  0  0  0
   -7.4410    0.3710   -2.0142 H   0  0  0  0  0  0  0  0  0  0  0  0
   -4.4616    3.5639   -4.7618 H   0  0  0  0  0  0  0  0  0  0  0  0
    0.3063    1.6739   -1.0732 H   0  0  0  0  0  0  0  0  0  0  0  0
   -1.2850    3.1094   -2.3503 H   0  0  0  0  0  0  0  0  0  0  0  0
   -1.4917    4.1477   -0.9125 H   0  0  0  0  0  0  0  0  0  0  0  0
    0.0659    4.0571   -1.7124 H   0  0  0  0  0  0  0  0  0  0  0  0
    0.4825    2.2112    1.2337 H   0  0  0  0  0  0  0  0  0  0  0  0
    3.0485    0.4450    3.1194 H   0  0  0  0  0  0  0  0  0  0  0  0
    5.1632   -0.1398    4.2990 H   0  0  0  0  0  0  0  0  0  0  0  0
    5.1331    1.5383    3.7436 H   0  0  0  0  0  0  0  0  0  0  0  0
    6.0943    0.3415    2.8668 H   0  0  0  0  0  0  0  0  0  0  0  0
    3.9445    2.1544    1.6038 H   0  0  0  0  0  0  0  0  0  0  0  0
    4.8204    0.9339    0.6714 H   0  0  0  0  0  0  0  0  0  0  0  0
    3.0469    0.9448    0.6860 H   0  0  0  0  0  0  0  0  0  0  0  0
  1  2  1  0
  2  3  1  0
  2  4  1  0
  4  5  1  0
  4  6  1  0
  6  7  2  0
  6  8  1  0
  8  9  1  0
  9 10  1  0
 10 11  2  0
 10 12  1  0
 12 13  1  0
 13 14  1  0
 14 15  1  0
 13 16  1  0
 16 17  2  0
 16 18  1  0
 18 19  1  0
 19 20  1  0
 20 21  2  0
 20 22  1  0
 22 23  1  0
 23 24  1  0
 24 25  1  0
 25 26  2  0
 26 27  1  0
 27 28  2  0
 28 29  1  0
 28 30  1  0
 30 31  2  0
 23 32  1  0
 32 33  2  0
 32 34  1  0
 19 35  1  0
 35 36  1  0
 35 37  1  0
  9 38  1  0
 38 39  1  0
 38 40  1  0
 31 25  1  0
  1 41  1  0
  1 42  1  0
  1 43  1  0
  2 44  1  0
  3 45  1  0
  3 46  1  0
  3 47  1  0
  4 48  1  6
  5 49  1  0
  5 50  1  0
  8 51  1  0
  9 52  1  1
 12 53  1  0
 13 54  1  6
 14 55  1  0
 14 56  1  0
 15 57  1  0
 18 58  1  0
 19 59  1  1
 22 60  1  0
 23 61  1  6
 24 62  1  0
 24 63  1  0
 26 64  1  0
 27 65  1  0
 29 66  1  0
 30 67  1  0
 31 68  1  0
 34 69  1  0
 35 70  1  6
 36 71  1  0
 36 72  1  0
 36 73  1  0
 37 74  1  0
 38 75  1  0
 39 76  1  0
 39 77  1  0
 39 78  1  0
 40 79  1  0
 40 80  1  0
 40 81  1  0
M  END
$$$$
VVCTY.sdf
     RDKit          3D

 81 81  0  0  0  0  0  0  0  0999 V2000
    7.6732   -4.2590    2.4523 C   0  0  0  0  0  0  0  0  0  0  0  0
    6.6026   -5.2988    2.1032 C   0  0  0  0  0  0  0  0  0  0  0  0
    7.2742   -6.5737    1.5812 C   0  0  0  0  0  0  0  0  0  0  0  0
    5.5278   -4.7886    1.1149 C   0  0  2  0  0  0  0  0  0  0  0  0
    6.0887   -4.3556   -0.1833 N   0  0  0  0  0  0  0  0  0  0  0  0
    4.6619   -3.6860    1.7694 C   0  0  0  0  0  0  0  0  0  0  0  0
    3.7811   -3.9458    2.5863 O   0  0  0  0  0  0  0  0  0  0  0  0
    4.9836   -2.3909    1.4074 N   0  0  0  0  0  0  0  0  0  0  0  0
    4.0849   -1.2970    1.7618 C   0  0  2  0  0  0  0  0  0  0  0  0
    3.0415   -1.1727    0.6304 C   0  0  0  0  0  0  0  0  0  0  0  0
    3.2362   -1.6125   -0.5031 O   0  0  0  0  0  0  0  0  0  0  0  0
    1.8977   -0.4983    0.9719 N   0  0  0  0  0  0  0  0  0  0  0  0
    0.7892   -0.3084    0.0378 C   0  0  1  0  0  0  0  0  0  0  0  0
    0.0046   -1.6006   -0.2395 C   0  0  0  0  0  0  0  0  0  0  0  0
   -0.6784   -2.3903    1.2588 S   0  0  0  0  0  0  0  0  0  0  0  0
   -0.1081    0.8169    0.5883 C   0  0  0  0  0  0  0  0  0  0  0  0
    0.0487    1.2886    1.7156 O   0  0  0  0  0  0  0  0  0  0  0  0
   -1.0737    1.2809   -0.2701 N   0  0  0  0  0  0  0  0  0  0  0  0
   -2.0939    2.2371    0.1620 C   0  0  2  0  0  0  0  0  0  0  0  0
   -3.2561    2.1573   -0.8493 C   0  0  0  0  0  0  0  0  0  0  0  0
   -3.2380    1.3692   -1.7963 O   0  0  0  0  0  0  0  0  0  0  0  0
   -4.3174    2.9878   -0.5913 N   0  0  0  0  0  0  0  0  0  0  0  0
   -5.4850    3.0596   -1.4748 C   0  0  1  0  0  0  0  0  0  0  0  0
   -6.4653    1.9156   -1.1815 C   0  0  0  0  0  0  0  0  0  0  0  0
   -7.5628    1.7866   -2.2108 C   0  0  0  0  0  0  0  0  0  0  0  0
   -7.2877    1.2352   -3.4712 C   0  0  0  0  0  0  0  0  0  0  0  0
   -8.2946    1.1265   -4.4326 C   0  0  0  0  0  0  0  0  0  0  0  0
   -9.5779    1.5702   -4.1317 C   0  0  0  0  0  0  0  0  0  0  0  0
  -10.5909    1.4839   -5.0404 O   0  0  0  0  0  0  0  0  0  0  0  0
   -9.8688    2.1174   -2.8883 C   0  0  0  0  0  0  0  0  0  0  0  0
   -8.8633    2.2260   -1.9268 C   0  0  0  0  0  0  0  0  0  0  0  0
   -6.1619    4.4051   -1.2360 C   0  0  0  0  0  0  0  0  0  0  0  0
   -6.3001    4.9560   -0.1532 O   0  0  0  0  0  0  0  0  0  0  0  0
   -6.6154    4.9872   -2.3626 O   0  0  0  0  0  0  0  0  0  0  0  0
   -1.5469    3.6703    0.3315 C   0  0  1  0  0  0  0  0  0  0  0  0
   -1.1951    4.3583   -0.9833 C   0  0  0  0  0  0  0  0  0  0  0  0
   -2.5092    4.4807    1.0211 O   0  0  0  0  0  0  0  0  0  0  0  0
    4.8259    0.0380    1.9914 C   0  0  0  0  0  0  0  0  0  0  0  0
    5.6737    0.4794    0.7939 C   0  0  0  0  0  0  0  0  0  0  0  0
    5.7003   -0.0361    3.2468 C   0  0  0  0  0  0  0  0  0  0  0  0
    8.2690   -3.9751    1.5792 H   0  0  0  0  0  0  0  0  0  0  0  0
    8.3631   -4.6606    3.2030 H   0  0  0  0  0  0  0  0  0  0  0  0
    7.2278   -3.3535    2.8746 H   0  0  0  0  0  0  0  0  0  0  0  0
    6.0947   -5.5607    3.0415 H   0  0  0  0  0  0  0  0  0  0  0  0
    7.9599   -6.9831    2.3308 H   0  0  0  0  0  0  0  0  0  0  0  0
    6.5279   -7.3438    1.3593 H   0  0  0  0  0  0  0  0  0  0  0  0
    7.8507   -6.3840    0.6697 H   0  0  0  0  0  0  0  0  0  0  0  0
    4.8342   -5.6096    0.8918 H   0  0  0  0  0  0  0  0  0  0  0  0
    6.7900   -3.6322   -0.0547 H   0  0  0  0  0  0  0  0  0  0  0  0
    5.3427   -3.9993   -0.7812 H   0  0  0  0  0  0  0  0  0  0  0  0
    5.4058   -2.3120    0.4915 H   0  0  0  0  0  0  0  0  0  0  0  0
    3.5408   -1.5651    2.6763 H   0  0  0  0  0  0  0  0  0  0  0  0
    1.7424   -0.1831    1.9267 H   0  0  0  0  0  0  0  0  0  0  0  0
    1.2197    0.0516   -0.9055 H   0  0  0  0  0  0  0  0  0  0  0  0
   -0.8326   -1.4063   -0.9170 H   0  0  0  0  0  0  0  0  0  0  0  0
    0.6496   -2.3389   -0.7267 H   0  0  0  0  0  0  0  0  0  0  0  0
    0.5019   -2.7468    1.7916 H   0  0  0  0  0  0  0  0  0  0  0  0
   -1.2795    0.7893   -1.1371 H   0  0  0  0  0  0  0  0  0  0  0  0
   -2.4916    1.8829    1.1223 H   0  0  0  0  0  0  0  0  0  0  0  0
   -4.2031    3.7173    0.1174 H   0  0  0  0  0  0  0  0  0  0  0  0
   -5.1161    3.0240   -2.5069 H   0  0  0  0  0  0  0  0  0  0  0  0
   -5.9313    0.9572   -1.1368 H   0  0  0  0  0  0  0  0  0  0  0  0
   -6.9077    2.0441   -0.1842 H   0  0  0  0  0  0  0  0  0  0  0  0
   -6.2847    0.8850   -3.7093 H   0  0  0  0  0  0  0  0  0  0  0  0
   -8.0591    0.6965   -5.4007 H   0  0  0  0  0  0  0  0  0  0  0  0
  -10.2443    1.0729   -5.8492 H   0  0  0  0  0  0  0  0  0  0  0  0
  -10.8766    2.4573   -2.6674 H   0  0  0  0  0  0  0  0  0  0  0  0
   -9.1051    2.6553   -0.9570 H   0  0  0  0  0  0  0  0  0  0  0  0
   -7.0353    5.8201   -2.0627 H   0  0  0  0  0  0  0  0  0  0  0  0
   -0.6424    3.6569    0.9504 H   0  0  0  0  0  0  0  0  0  0  0  0
   -0.7651    5.3464   -0.7842 H   0  0  0  0  0  0  0  0  0  0  0  0
   -2.0816    4.5329   -1.6015 H   0  0  0  0  0  0  0  0  0  0  0  0
   -0.4688    3.7774   -1.5593 H   0  0  0  0  0  0  0  0  0  0  0  0
   -2.3238    4.3884    1.9754 H   0  0  0  0  0  0  0  0  0  0  0  0
    4.0760    0.8215    2.1632 H   0  0  0  0  0  0  0  0  0  0  0  0
    5.0657    0.5753   -0.1109 H   0  0  0  0  0  0  0  0  0  0  0  0
    6.4855   -0.2259    0.5883 H   0  0  0  0  0  0  0  0  0  0  0  0
    6.1279    1.4575    0.9874 H   0  0  0  0  0  0  0  0  0  0  0  0
    5.1030   -0.3159    4.1210 H   0  0  0  0  0  0  0  0  0  0  0  0
    6.5053   -0.7699    3.1351 H   0  0  0  0  0  0  0  0  0  0  0  0
    6.1597    0.9360    3.4557 H   0  0  0  0  0  0  0  0  0  0  0  0
  1  2  1  0
  2  3  1  0
  2  4  1  0
  4  5  1  0
  4  6  1  0
  6  7  2  0
  6  8  1  0
  8  9  1  0
  9 10  1  0
 10 11  2  0
 10 12  1  0
 12 13  1  0
 13 14  1  0
 14 15  1  0
 13 16  1  0
 16 17  2  0
 16 18  1  0
 18 19  1  0
 19 20  1  0
 20 21  2  0
 20 22  1  0
 22 23  1  0
 23 24  1  0
 24 25  1  0
 25 26  2  0
 26 27  1  0
 27 28  2  0
 28 29  1  0
 28 30  1  0
 30 31  2  0
 23 32  1  0
 32 33  2  0
 32 34  1  0
 19 35  1  0
 35 36  1  0
 35 37  1  0
  9 38  1  0
 38 39  1  0
 38 40  1  0
 31 25  1  0
  1 41  1  0
  1 42  1  0
  1 43  1  0
  2 44  1  0
  3 45  1  0
  3 46  1  0
  3 47  1  0
  4 48  1  6
  5 49  1  0
  5 50  1  0
  8 51  1  0
  9 52  1  1
 12 53  1  0
 13 54  1  6
 14 55  1  0
 14 56  1  0
 15 57  1  0
 18 58  1  0
 19 59  1  1
 22 60  1  0
 23 61  1  6
 24 62  1  0
 24 63  1  0
 26 64  1  0
 27 65  1  0
 29 66  1  0
 30 67  1  0
 31 68  1  0
 34 69  1  0
 35 70  1  1
 36 71  1  0
 36 72  1  0
 36 73  1  0
 37 74  1  0
 38 75  1  0
 39 76  1  0
 39 77  1  0
 39 78  1  0
 40 79  1  0
 40 80  1  0
 40 81  1  0
M  END
$$$$
VVCTY.sdf
     RDKit          3D

 81 81  0  0  0  0  0  0  0  0999 V2000
    8.0653   -4.3458    0.3421 C   0  0  0  0  0  0  0  0  0  0  0  0
    8.1185   -3.5060    1.6233 C   0  0  0  0  0  0  0  0  0  0  0  0
    8.1630   -4.4204    2.8523 C   0  0  0  0  0  0  0  0  0  0  0  0
    7.0047   -2.4327    1.6437 C   0  0  2  0  0  0  0  0  0  0  0  0
    7.1630   -1.5213    2.8029 N   0  0  0  0  0  0  0  0  0  0  0  0
    5.5489   -2.9708    1.6347 C   0  0  0  0  0  0  0  0  0  0  0  0
    5.2363   -4.1456    1.7878 O   0  0  0  0  0  0  0  0  0  0  0  0
    4.6133   -1.9653    1.4763 N   0  0  0  0  0  0  0  0  0  0  0  0
    3.1877   -2.2465    1.3239 C   0  0  2  0  0  0  0  0  0  0  0  0
    2.6876   -1.4309    0.1117 C   0  0  0  0  0  0  0  0  0  0  0  0
    3.3468   -0.5118   -0.3768 O   0  0  0  0  0  0  0  0  0  0  0  0
    1.4499   -1.7956   -0.3690 N   0  0  0  0  0  0  0  0  0  0  0  0
    0.7505   -0.9431   -1.3275 C   0  0  1  0  0  0  0  0  0  0  0  0
   -0.2363   -1.7347   -2.1976 C   0  0  0  0  0  0  0  0  0  0  0  0
   -1.4287   -2.7452   -1.2456 S   0  0  0  0  0  0  0  0  0  0  0  0
    0.0227    0.1802   -0.5610 C   0  0  0  0  0  0  0  0  0  0  0  0
   -0.3350    0.0605    0.6103 O   0  0  0  0  0  0  0  0  0  0  0  0
   -0.2296    1.3155   -1.3018 N   0  0  0  0  0  0  0  0  0  0  0  0
   -1.2023    2.3056   -0.8259 C   0  0  2  0  0  0  0  0  0  0  0  0
   -2.5486    1.9634   -1.4998 C   0  0  0  0  0  0  0  0  0  0  0  0
   -2.6205    1.1962   -2.4603 O   0  0  0  0  0  0  0  0  0  0  0  0
   -3.6568    2.5603   -0.9365 N   0  0  0  0  0  0  0  0  0  0  0  0
   -4.9660    2.5063   -1.6077 C   0  0  1  0  0  0  0  0  0  0  0  0
   -6.0887    2.4179   -0.5679 C   0  0  0  0  0  0  0  0  0  0  0  0
   -7.4577    2.2028   -1.1666 C   0  0  0  0  0  0  0  0  0  0  0  0
   -7.8088    0.9561   -1.7035 C   0  0  0  0  0  0  0  0  0  0  0  0
   -9.0708    0.7603   -2.2658 C   0  0  0  0  0  0  0  0  0  0  0  0
   -9.9836    1.8069   -2.2924 C   0  0  0  0  0  0  0  0  0  0  0  0
  -11.2050    1.5705   -2.8502 O   0  0  0  0  0  0  0  0  0  0  0  0
   -9.6558    3.0512   -1.7650 C   0  0  0  0  0  0  0  0  0  0  0  0
   -8.3923    3.2483   -1.2026 C   0  0  0  0  0  0  0  0  0  0  0  0
   -5.0895    3.8020   -2.4043 C   0  0  0  0  0  0  0  0  0  0  0  0
   -4.7247    4.9051   -2.0187 O   0  0  0  0  0  0  0  0  0  0  0  0
   -5.6586    3.6465   -3.6129 O   0  0  0  0  0  0  0  0  0  0  0  0
   -0.7619    3.7409   -1.1708 C   0  0  1  0  0  0  0  0  0  0  0  0
    0.2802    4.2591   -0.1835 C   0  0  0  0  0  0  0  0  0  0  0  0
   -0.2070    3.7993   -2.4903 O   0  0  0  0  0  0  0  0  0  0  0  0
    2.3817   -1.9229    2.6029 C   0  0  0  0  0  0  0  0  0  0  0  0
    2.5582   -0.4736    3.0698 C   0  0  0  0  0  0  0  0  0  0  0  0
    2.7361   -2.8820    3.7429 C   0  0  0  0  0  0  0  0  0  0  0  0
    8.0583   -3.7037   -0.5449 H   0  0  0  0  0  0  0  0  0  0  0  0
    7.1792   -4.9863    0.3066 H   0  0  0  0  0  0  0  0  0  0  0  0
    8.9449   -4.9952    0.2726 H   0  0  0  0  0  0  0  0  0  0  0  0
    9.0779   -2.9692    1.5996 H   0  0  0  0  0  0  0  0  0  0  0  0
    9.0062   -5.1164    2.7767 H   0  0  0  0  0  0  0  0  0  0  0  0
    8.3028   -3.8490    3.7747 H   0  0  0  0  0  0  0  0  0  0  0  0
    7.2549   -5.0200    2.9562 H   0  0  0  0  0  0  0  0  0  0  0  0
    7.1161   -1.8223    0.7375 H   0  0  0  0  0  0  0  0  0  0  0  0
    7.0366   -2.0644    3.6584 H   0  0  0  0  0  0  0  0  0  0  0  0
    6.3913   -0.8541    2.8033 H   0  0  0  0  0  0  0  0  0  0  0  0
    4.9277   -1.0798    1.0879 H   0  0  0  0  0  0  0  0  0  0  0  0
    3.0593   -3.3053    1.0663 H   0  0  0  0  0  0  0  0  0  0  0  0
    0.8506   -2.3490    0.2352 H   0  0  0  0  0  0  0  0  0  0  0  0
    1.4945   -0.4711   -1.9812 H   0  0  0  0  0  0  0  0  0  0  0  0
    0.3220   -2.4278   -2.8362 H   0  0  0  0  0  0  0  0  0  0  0  0
   -0.8062   -1.0673   -2.8514 H   0  0  0  0  0  0  0  0  0  0  0  0
   -2.0864   -1.7209   -0.6772 H   0  0  0  0  0  0  0  0  0  0  0  0
   -0.2223    1.2170   -2.3129 H   0  0  0  0  0  0  0  0  0  0  0  0
   -1.3507    2.2031    0.2558 H   0  0  0  0  0  0  0  0  0  0  0  0
   -3.5085    3.3664   -0.3391 H   0  0  0  0  0  0  0  0  0  0  0  0
   -4.9836    1.6553   -2.2970 H   0  0  0  0  0  0  0  0  0  0  0  0
   -5.8859    1.5901    0.1253 H   0  0  0  0  0  0  0  0  0  0  0  0
   -6.0983    3.3214    0.0570 H   0  0  0  0  0  0  0  0  0  0  0  0
   -7.1044    0.1269   -1.6886 H   0  0  0  0  0  0  0  0  0  0  0  0
   -9.3405   -0.2064   -2.6819 H   0  0  0  0  0  0  0  0  0  0  0  0
  -11.7341    2.3826   -2.7939 H   0  0  0  0  0  0  0  0  0  0  0  0
  -10.3640    3.8734   -1.7817 H   0  0  0  0  0  0  0  0  0  0  0  0
   -8.1447    4.2253   -0.7926 H   0  0  0  0  0  0  0  0  0  0  0  0
   -5.6578    4.5394   -4.0153 H   0  0  0  0  0  0  0  0  0  0  0  0
   -1.6190    4.4223   -1.1562 H   0  0  0  0  0  0  0  0  0  0  0  0
    0.5973    5.2701   -0.4612 H   0  0  0  0  0  0  0  0  0  0  0  0
    1.1804    3.6347   -0.1907 H   0  0  0  0  0  0  0  0  0  0  0  0
   -0.1182    4.2861    0.8352 H   0  0  0  0  0  0  0  0  0  0  0  0
    0.6735    3.3836   -2.4522 H   0  0  0  0  0  0  0  0  0  0  0  0
    1.3150   -2.0641    2.3871 H   0  0  0  0  0  0  0  0  0  0  0  0
    2.2654    0.2345    2.2883 H   0  0  0  0  0  0  0  0  0  0  0  0
    1.9294   -0.2740    3.9444 H   0  0  0  0  0  0  0  0  0  0  0  0
    3.5948   -0.2619    3.3518 H   0  0  0  0  0  0  0  0  0  0  0  0
    2.0866   -2.7084    4.6077 H   0  0  0  0  0  0  0  0  0  0  0  0
    2.6026   -3.9233    3.4315 H   0  0  0  0  0  0  0  0  0  0  0  0
    3.7716   -2.7532    4.0743 H   0  0  0  0  0  0  0  0  0  0  0  0
  1  2  1  0
  2  3  1  0
  2  4  1  0
  4  5  1  0
  4  6  1  0
  6  7  2  0
  6  8  1  0
  8  9  1  0
  9 10  1  0
 10 11  2  0
 10 12  1  0
 12 13  1  0
 13 14  1  0
 14 15  1  0
 13 16  1  0
 16 17  2  0
 16 18  1  0
 18 19  1  0
 19 20  1  0
 20 21  2  0
 20 22  1  0
 22 23  1  0
 23 24  1  0
 24 25  1  0
 25 26  2  0
 26 27  1  0
 27 28  2  0
 28 29  1  0
 28 30  1  0
 30 31  2  0
 23 32  1  0
 32 33  2  0
 32 34  1  0
 19 35  1  0
 35 36  1  0
 35 37  1  0
  9 38  1  0
 38 39  1  0
 38 40  1  0
 31 25  1  0
  1 41  1  0
  1 42  1  0
  1 43  1  0
  2 44  1  0
  3 45  1  0
  3 46  1  0
  3 47  1  0
  4 48  1  6
  5 49  1  0
  5 50  1  0
  8 51  1  0
  9 52  1  6
 12 53  1  0
 13 54  1  6
 14 55  1  0
 14 56  1  0
 15 57  1  0
 18 58  1  0
 19 59  1  1
 22 60  1  0
 23 61  1  6
 24 62  1  0
 24 63  1  0
 26 64  1  0
 27 65  1  0
 29 66  1  0
 30 67  1  0
 31 68  1  0
 34 69  1  0
 35 70  1  6
 36 71  1  0
 36 72  1  0
 36 73  1  0
 37 74  1  0
 38 75  1  0
 39 76  1  0
 39 77  1  0
 39 78  1  0
 40 79  1  0
 40 80  1  0
 40 81  1  0
M  END
$$$$
VVCTY.sdf
     RDKit          3D

 81 81  0  0  0  0  0  0  0  0999 V2000
    5.9424   -6.2998    0.9042 C   0  0  0  0  0  0  0  0  0  0  0  0
    4.6287   -5.5076    0.9646 C   0  0  0  0  0  0  0  0  0  0  0  0
    3.7850   -5.9055   -0.2572 C   0  0  0  0  0  0  0  0  0  0  0  0
    4.8423   -3.9716    1.0197 C   0  0  2  0  0  0  0  0  0  0  0  0
    5.9395   -3.5609    1.9341 N   0  0  0  0  0  0  0  0  0  0  0  0
    3.5501   -3.2121    1.4562 C   0  0  0  0  0  0  0  0  0  0  0  0
    2.4116   -3.6549    1.3447 O   0  0  0  0  0  0  0  0  0  0  0  0
    3.8094   -1.9455    1.9436 N   0  0  0  0  0  0  0  0  0  0  0  0
    2.7577   -0.9505    2.0702 C   0  0  2  0  0  0  0  0  0  0  0  0
    2.6446   -0.1792    0.7351 C   0  0  0  0  0  0  0  0  0  0  0  0
    3.5536   -0.1302   -0.0918 O   0  0  0  0  0  0  0  0  0  0  0  0
    1.4567    0.4878    0.5600 N   0  0  0  0  0  0  0  0  0  0  0  0
    1.1494    1.2894   -0.6259 C   0  0  1  0  0  0  0  0  0  0  0  0
    0.6911    0.4359   -1.8195 C   0  0  0  0  0  0  0  0  0  0  0  0
    2.0564   -0.0403   -2.9283 S   0  0  0  0  0  0  0  0  0  0  0  0
    0.0062    2.2371   -0.2288 C   0  0  0  0  0  0  0  0  0  0  0  0
   -0.7335    2.0153    0.7320 O   0  0  0  0  0  0  0  0  0  0  0  0
   -0.1709    3.3210   -1.0503 N   0  0  0  0  0  0  0  0  0  0  0  0
   -1.2326    4.3122   -0.8442 C   0  0  2  0  0  0  0  0  0  0  0  0
   -2.5492    3.7872   -1.4593 C   0  0  0  0  0  0  0  0  0  0  0  0
   -3.1652    4.3877   -2.3365 O   0  0  0  0  0  0  0  0  0  0  0  0
   -2.9911    2.5976   -0.9176 N   0  0  0  0  0  0  0  0  0  0  0  0
   -4.3263    2.0681   -1.2156 C   0  0  1  0  0  0  0  0  0  0  0  0
   -4.3345    0.5444   -1.0461 C   0  0  0  0  0  0  0  0  0  0  0  0
   -5.6081   -0.1163   -1.5154 C   0  0  0  0  0  0  0  0  0  0  0  0
   -6.5317   -0.6178   -0.5873 C   0  0  0  0  0  0  0  0  0  0  0  0
   -7.7144   -1.2171   -1.0227 C   0  0  0  0  0  0  0  0  0  0  0  0
   -7.9766   -1.3167   -2.3831 C   0  0  0  0  0  0  0  0  0  0  0  0
   -9.1447   -1.9084   -2.7632 O   0  0  0  0  0  0  0  0  0  0  0  0
   -7.0732   -0.8273   -3.3202 C   0  0  0  0  0  0  0  0  0  0  0  0
   -5.8891   -0.2277   -2.8853 C   0  0  0  0  0  0  0  0  0  0  0  0
   -5.3053    2.7123   -0.2357 C   0  0  0  0  0  0  0  0  0  0  0  0
   -5.0834    2.9677    0.9397 O   0  0  0  0  0  0  0  0  0  0  0  0
   -6.5068    2.9860   -0.7797 O   0  0  0  0  0  0  0  0  0  0  0  0
   -0.8493    5.6638   -1.4804 C   0  0  1  0  0  0  0  0  0  0  0  0
    0.3022    6.3336   -0.7392 C   0  0  0  0  0  0  0  0  0  0  0  0
   -0.4304    5.4625   -2.8385 O   0  0  0  0  0  0  0  0  0  0  0  0
    2.9819    0.0130    3.2569 C   0  0  0  0  0  0  0  0  0  0  0  0
    4.3157    0.7639    3.1881 C   0  0  0  0  0  0  0  0  0  0  0  0
    2.8727   -0.7315    4.5910 C   0  0  0  0  0  0  0  0  0  0  0  0
    6.5667   -5.9699    0.0668 H   0  0  0  0  0  0  0  0  0  0  0  0
    5.7469   -7.3705    0.7776 H   0  0  0  0  0  0  0  0  0  0  0  0
    6.5175   -6.1913    1.8292 H   0  0  0  0  0  0  0  0  0  0  0  0
    4.0886   -5.8265    1.8659 H   0  0  0  0  0  0  0  0  0  0  0  0
    3.6289   -6.9898   -0.2824 H   0  0  0  0  0  0  0  0  0  0  0  0
    4.2829   -5.6174   -1.1896 H   0  0  0  0  0  0  0  0  0  0  0  0
    2.7964   -5.4409   -0.2484 H   0  0  0  0  0  0  0  0  0  0  0  0
    5.0968   -3.5987    0.0196 H   0  0  0  0  0  0  0  0  0  0  0  0
    5.7523   -3.9566    2.8567 H   0  0  0  0  0  0  0  0  0  0  0  0
    6.8140   -3.9775    1.6182 H   0  0  0  0  0  0  0  0  0  0  0  0
    4.7636   -1.6332    1.7781 H   0  0  0  0  0  0  0  0  0  0  0  0
    1.8033   -1.4733    2.2148 H   0  0  0  0  0  0  0  0  0  0  0  0
    0.7191    0.4001    1.2547 H   0  0  0  0  0  0  0  0  0  0  0  0
    2.0269    1.9020   -0.8670 H   0  0  0  0  0  0  0  0  0  0  0  0
    0.2018   -0.4813   -1.4728 H   0  0  0  0  0  0  0  0  0  0  0  0
   -0.0348    0.9695   -2.4417 H   0  0  0  0  0  0  0  0  0  0  0  0
    2.9093   -0.4301   -1.9597 H   0  0  0  0  0  0  0  0  0  0  0  0
    0.3726    3.4277   -1.9035 H   0  0  0  0  0  0  0  0  0  0  0  0
   -1.4062    4.4408    0.2315 H   0  0  0  0  0  0  0  0  0  0  0  0
   -2.5753    2.3330   -0.0223 H   0  0  0  0  0  0  0  0  0  0  0  0
   -4.5952    2.3654   -2.2356 H   0  0  0  0  0  0  0  0  0  0  0  0
   -3.4979    0.1051   -1.6068 H   0  0  0  0  0  0  0  0  0  0  0  0
   -4.1474    0.2805    0.0039 H   0  0  0  0  0  0  0  0  0  0  0  0
   -6.3406   -0.5468    0.4813 H   0  0  0  0  0  0  0  0  0  0  0  0
   -8.4289   -1.6055   -0.3025 H   0  0  0  0  0  0  0  0  0  0  0  0
   -9.1884   -1.9096   -3.7333 H   0  0  0  0  0  0  0  0  0  0  0  0
   -7.2705   -0.9016   -4.3849 H   0  0  0  0  0  0  0  0  0  0  0  0
   -5.1868    0.1525   -3.6245 H   0  0  0  0  0  0  0  0  0  0  0  0
   -7.0298    3.3789   -0.0509 H   0  0  0  0  0  0  0  0  0  0  0  0
   -1.7037    6.3511   -1.4865 H   0  0  0  0  0  0  0  0  0  0  0  0
    0.5457    7.2935   -1.2078 H   0  0  0  0  0  0  0  0  0  0  0  0
    1.2138    5.7279   -0.7829 H   0  0  0  0  0  0  0  0  0  0  0  0
    0.0480    6.5141    0.3096 H   0  0  0  0  0  0  0  0  0  0  0  0
   -1.2502    5.3059   -3.3513 H   0  0  0  0  0  0  0  0  0  0  0  0
    2.1854    0.7687    3.2410 H   0  0  0  0  0  0  0  0  0  0  0  0
    5.1702    0.0833    3.2595 H   0  0  0  0  0  0  0  0  0  0  0  0
    4.3942    1.4787    4.0147 H   0  0  0  0  0  0  0  0  0  0  0  0
    4.4060    1.3311    2.2566 H   0  0  0  0  0  0  0  0  0  0  0  0
    2.9499   -0.0327    5.4310 H   0  0  0  0  0  0  0  0  0  0  0  0
    3.6657   -1.4785    4.7027 H   0  0  0  0  0  0  0  0  0  0  0  0
    1.9082   -1.2437    4.6727 H   0  0  0  0  0  0  0  0  0  0  0  0
  1  2  1  0
  2  3  1  0
  2  4  1  0
  4  5  1  0
  4  6  1  0
  6  7  2  0
  6  8  1  0
  8  9  1  0
  9 10  1  0
 10 11  2  0
 10 12  1  0
 12 13  1  0
 13 14  1  0
 14 15  1  0
 13 16  1  0
 16 17  2  0
 16 18  1  0
 18 19  1  0
 19 20  1  0
 20 21  2  0
 20 22  1  0
 22 23  1  0
 23 24  1  0
 24 25  1  0
 25 26  2  0
 26 27  1  0
 27 28  2  0
 28 29  1  0
 28 30  1  0
 30 31  2  0
 23 32  1  0
 32 33  2  0
 32 34  1  0
 19 35  1  0
 35 36  1  0
 35 37  1  0
  9 38  1  0
 38 39  1  0
 38 40  1  0
 31 25  1  0
  1 41  1  0
  1 42  1  0
  1 43  1  0
  2 44  1  0
  3 45  1  0
  3 46  1  0
  3 47  1  0
  4 48  1  6
  5 49  1  0
  5 50  1  0
  8 51  1  0
  9 52  1  1
 12 53  1  0
 13 54  1  6
 14 55  1  0
 14 56  1  0
 15 57  1  0
 18 58  1  0
 19 59  1  1
 22 60  1  0
 23 61  1  6
 24 62  1  0
 24 63  1  0
 26 64  1  0
 27 65  1  0
 29 66  1  0
 30 67  1  0
 31 68  1  0
 34 69  1  0
 35 70  1  6
 36 71  1  0
 36 72  1  0
 36 73  1  0
 37 74  1  0
 38 75  1  0
 39 76  1  0
 39 77  1  0
 39 78  1  0
 40 79  1  0
 40 80  1  0
 40 81  1  0
M  END
$$$$
VVCTY.sdf
     RDKit          3D

 81 81  0  0  0  0  0  0  0  0999 V2000
    4.9876   -4.1233   -0.5319 C   0  0  0  0  0  0  0  0  0  0  0  0
    5.9910   -2.9669   -0.4522 C   0  0  0  0  0  0  0  0  0  0  0  0
    7.1085   -3.1793   -1.4792 C   0  0  0  0  0  0  0  0  0  0  0  0
    6.5672   -2.7494    0.9680 C   0  0  2  0  0  0  0  0  0  0  0  0
    7.2957   -3.9317    1.4759 N   0  0  0  0  0  0  0  0  0  0  0  0
    5.4616   -2.3519    1.9782 C   0  0  0  0  0  0  0  0  0  0  0  0
    5.0751   -3.1088    2.8675 O   0  0  0  0  0  0  0  0  0  0  0  0
    4.9605   -1.0783    1.8081 N   0  0  0  0  0  0  0  0  0  0  0  0
    3.7437   -0.6656    2.5103 C   0  0  2  0  0  0  0  0  0  0  0  0
    2.5919   -1.0580    1.5584 C   0  0  0  0  0  0  0  0  0  0  0  0
    2.6568   -0.8767    0.3417 O   0  0  0  0  0  0  0  0  0  0  0  0
    1.5017   -1.6351    2.1660 N   0  0  0  0  0  0  0  0  0  0  0  0
    0.3071   -1.9790    1.4012 C   0  0  1  0  0  0  0  0  0  0  0  0
   -0.4695   -3.1481    2.0229 C   0  0  0  0  0  0  0  0  0  0  0  0
   -0.8599   -2.9264    3.7983 S   0  0  0  0  0  0  0  0  0  0  0  0
   -0.6117   -0.7509    1.2673 C   0  0  0  0  0  0  0  0  0  0  0  0
   -0.6890    0.1213    2.1307 O   0  0  0  0  0  0  0  0  0  0  0  0
   -1.3908   -0.7372    0.1380 N   0  0  0  0  0  0  0  0  0  0  0  0
   -2.3511    0.3281   -0.1486 C   0  0  2  0  0  0  0  0  0  0  0  0
   -3.2795   -0.1790   -1.2739 C   0  0  0  0  0  0  0  0  0  0  0  0
   -3.1109   -1.2719   -1.8164 O   0  0  0  0  0  0  0  0  0  0  0  0
   -4.3215    0.6646   -1.5860 N   0  0  0  0  0  0  0  0  0  0  0  0
   -5.1884    0.4094   -2.7385 C   0  0  1  0  0  0  0  0  0  0  0  0
   -6.6148    0.9378   -2.5180 C   0  0  0  0  0  0  0  0  0  0  0  0
   -6.7161    2.4276   -2.2714 C   0  0  0  0  0  0  0  0  0  0  0  0
   -6.9019    3.3157   -3.3402 C   0  0  0  0  0  0  0  0  0  0  0  0
   -6.9748    4.6904   -3.1114 C   0  0  0  0  0  0  0  0  0  0  0  0
   -6.8652    5.1810   -1.8165 C   0  0  0  0  0  0  0  0  0  0  0  0
   -6.9415    6.5306   -1.6395 O   0  0  0  0  0  0  0  0  0  0  0  0
   -6.6852    4.3181   -0.7413 C   0  0  0  0  0  0  0  0  0  0  0  0
   -6.6126    2.9423   -0.9701 C   0  0  0  0  0  0  0  0  0  0  0  0
   -4.5631    0.9940   -4.0071 C   0  0  0  0  0  0  0  0  0  0  0  0
   -3.5904    1.7297   -4.0789 O   0  0  0  0  0  0  0  0  0  0  0  0
   -5.2001    0.6094   -5.1341 O   0  0  0  0  0  0  0  0  0  0  0  0
   -1.6832    1.6764   -0.5011 C   0  0  1  0  0  0  0  0  0  0  0  0
   -0.8045    1.6173   -1.7470 C   0  0  0  0  0  0  0  0  0  0  0  0
   -2.6904    2.6852   -0.6743 O   0  0  0  0  0  0  0  0  0  0  0  0
    3.7551    0.8522    2.7896 C   0  0  0  0  0  0  0  0  0  0  0  0
    2.4792    1.3127    3.4994 C   0  0  0  0  0  0  0  0  0  0  0  0
    4.9680    1.2453    3.6426 C   0  0  0  0  0  0  0  0  0  0  0  0
    4.1571   -3.9784    0.1662 H   0  0  0  0  0  0  0  0  0  0  0  0
    5.4575   -5.0871   -0.3110 H   0  0  0  0  0  0  0  0  0  0  0  0
    4.5599   -4.1885   -1.5385 H   0  0  0  0  0  0  0  0  0  0  0  0
    5.4527   -2.0580   -0.7499 H   0  0  0  0  0  0  0  0  0  0  0  0
    7.8207   -2.3478   -1.4560 H   0  0  0  0  0  0  0  0  0  0  0  0
    7.6598   -4.1070   -1.2941 H   0  0  0  0  0  0  0  0  0  0  0  0
    6.6952   -3.2339   -2.4922 H   0  0  0  0  0  0  0  0  0  0  0  0
    7.2833   -1.9182    0.9378 H   0  0  0  0  0  0  0  0  0  0  0  0
    6.5998   -4.6567    1.6730 H   0  0  0  0  0  0  0  0  0  0  0  0
    7.6541   -3.7001    2.4050 H   0  0  0  0  0  0  0  0  0  0  0  0
    5.0883   -0.6574    0.8943 H   0  0  0  0  0  0  0  0  0  0  0  0
    3.6533   -1.2275    3.4473 H   0  0  0  0  0  0  0  0  0  0  0  0
    1.3810   -1.5160    3.1667 H   0  0  0  0  0  0  0  0  0  0  0  0
    0.6221   -2.2706    0.3912 H   0  0  0  0  0  0  0  0  0  0  0  0
    0.1255   -4.0643    1.9439 H   0  0  0  0  0  0  0  0  0  0  0  0
   -1.4114   -3.3162    1.4902 H   0  0  0  0  0  0  0  0  0  0  0  0
   -1.5205   -1.7622    3.6745 H   0  0  0  0  0  0  0  0  0  0  0  0
   -1.3130   -1.4672   -0.5664 H   0  0  0  0  0  0  0  0  0  0  0  0
   -2.9779    0.4580    0.7434 H   0  0  0  0  0  0  0  0  0  0  0  0
   -4.1415    1.6488   -1.3672 H   0  0  0  0  0  0  0  0  0  0  0  0
   -5.2355   -0.6769   -2.8846 H   0  0  0  0  0  0  0  0  0  0  0  0
   -7.2462    0.6809   -3.3786 H   0  0  0  0  0  0  0  0  0  0  0  0
   -7.0628    0.4154   -1.6619 H   0  0  0  0  0  0  0  0  0  0  0  0
   -6.9939    2.9467   -4.3593 H   0  0  0  0  0  0  0  0  0  0  0  0
   -7.1178    5.3768   -3.9411 H   0  0  0  0  0  0  0  0  0  0  0  0
   -6.8652    6.7223   -0.6906 H   0  0  0  0  0  0  0  0  0  0  0  0
   -6.5989    4.6923    0.2738 H   0  0  0  0  0  0  0  0  0  0  0  0
   -6.4711    2.2726   -0.1239 H   0  0  0  0  0  0  0  0  0  0  0  0
   -4.6751    1.0249   -5.8511 H   0  0  0  0  0  0  0  0  0  0  0  0
   -1.0622    2.0016    0.3411 H   0  0  0  0  0  0  0  0  0  0  0  0
   -1.3850    1.3574   -2.6365 H   0  0  0  0  0  0  0  0  0  0  0  0
    0.0059    0.8912   -1.6335 H   0  0  0  0  0  0  0  0  0  0  0  0
   -0.3591    2.5986   -1.9442 H   0  0  0  0  0  0  0  0  0  0  0  0
   -2.2304    3.5126   -0.9108 H   0  0  0  0  0  0  0  0  0  0  0  0
    3.8242    1.3956    1.8378 H   0  0  0  0  0  0  0  0  0  0  0  0
    2.5393    2.3748    3.7607 H   0  0  0  0  0  0  0  0  0  0  0  0
    1.6052    1.1914    2.8549 H   0  0  0  0  0  0  0  0  0  0  0  0
    2.3093    0.7467    4.4214 H   0  0  0  0  0  0  0  0  0  0  0  0
    5.9079    1.0214    3.1280 H   0  0  0  0  0  0  0  0  0  0  0  0
    4.9624    2.3200    3.8545 H   0  0  0  0  0  0  0  0  0  0  0  0
    4.9681    0.7121    4.5995 H   0  0  0  0  0  0  0  0  0  0  0  0
  1  2  1  0
  2  3  1  0
  2  4  1  0
  4  5  1  0
  4  6  1  0
  6  7  2  0
  6  8  1  0
  8  9  1  0
  9 10  1  0
 10 11  2  0
 10 12  1  0
 12 13  1  0
 13 14  1  0
 14 15  1  0
 13 16  1  0
 16 17  2  0
 16 18  1  0
 18 19  1  0
 19 20  1  0
 20 21  2  0
 20 22  1  0
 22 23  1  0
 23 24  1  0
 24 25  1  0
 25 26  2  0
 26 27  1  0
 27 28  2  0
 28 29  1  0
 28 30  1  0
 30 31  2  0
 23 32  1  0
 32 33  2  0
 32 34  1  0
 19 35  1  0
 35 36  1  0
 35 37  1  0
  9 38  1  0
 38 39  1  0
 38 40  1  0
 31 25  1  0
  1 41  1  0
  1 42  1  0
  1 43  1  0
  2 44  1  0
  3 45  1  0
  3 46  1  0
  3 47  1  0
  4 48  1  6
  5 49  1  0
  5 50  1  0
  8 51  1  0
  9 52  1  1
 12 53  1  0
 13 54  1  6
 14 55  1  0
 14 56  1  0
 15 57  1  0
 18 58  1  0
 19 59  1  1
 22 60  1  0
 23 61  1  6
 24 62  1  0
 24 63  1  0
 26 64  1  0
 27 65  1  0
 29 66  1  0
 30 67  1  0
 31 68  1  0
 34 69  1  0
 35 70  1  1
 36 71  1  0
 36 72  1  0
 36 73  1  0
 37 74  1  0
 38 75  1  0
 39 76  1  0
 39 77  1  0
 39 78  1  0
 40 79  1  0
 40 80  1  0
 40 81  1  0
M  END
$$$$
VVCTY.sdf
     RDKit          3D

 81 81  0  0  0  0  0  0  0  0999 V2000
    3.5342   -4.3588   -0.6343 C   0  0  0  0  0  0  0  0  0  0  0  0
    3.8441   -4.6445    0.8423 C   0  0  0  0  0  0  0  0  0  0  0  0
    5.0301   -5.6159    0.9118 C   0  0  0  0  0  0  0  0  0  0  0  0
    4.1210   -3.3312    1.6119 C   0  0  2  0  0  0  0  0  0  0  0  0
    4.5612   -3.5968    2.9995 N   0  0  0  0  0  0  0  0  0  0  0  0
    2.8681   -2.4194    1.6964 C   0  0  0  0  0  0  0  0  0  0  0  0
    1.7193   -2.8022    1.4836 O   0  0  0  0  0  0  0  0  0  0  0  0
    3.1672   -1.1306    2.1129 N   0  0  0  0  0  0  0  0  0  0  0  0
    2.1424   -0.0924    2.0452 C   0  0  2  0  0  0  0  0  0  0  0  0
    2.1563    0.4841    0.6148 C   0  0  0  0  0  0  0  0  0  0  0  0
    3.1810    0.5440   -0.0631 O   0  0  0  0  0  0  0  0  0  0  0  0
    0.9442    0.9436    0.1712 N   0  0  0  0  0  0  0  0  0  0  0  0
    0.7383    1.5028   -1.1697 C   0  0  1  0  0  0  0  0  0  0  0  0
    0.8685    0.4259   -2.2589 C   0  0  0  0  0  0  0  0  0  0  0  0
    1.0399    1.0923   -3.9500 S   0  0  0  0  0  0  0  0  0  0  0  0
   -0.6827    2.0979   -1.1330 C   0  0  0  0  0  0  0  0  0  0  0  0
   -1.4540    1.8903   -0.1933 O   0  0  0  0  0  0  0  0  0  0  0  0
   -1.0635    2.8312   -2.2279 N   0  0  0  0  0  0  0  0  0  0  0  0
   -2.3258    3.5944   -2.2522 C   0  0  2  0  0  0  0  0  0  0  0  0
   -3.5619    2.6994   -2.5387 C   0  0  0  0  0  0  0  0  0  0  0  0
   -4.4965    3.0638   -3.2506 O   0  0  0  0  0  0  0  0  0  0  0  0
   -3.6024    1.5106   -1.8398 N   0  0  0  0  0  0  0  0  0  0  0  0
   -4.8281    0.7156   -1.7630 C   0  0  1  0  0  0  0  0  0  0  0  0
   -4.5481   -0.7898   -1.6104 C   0  0  0  0  0  0  0  0  0  0  0  0
   -3.5299   -1.1855   -0.5603 C   0  0  0  0  0  0  0  0  0  0  0  0
   -2.2850   -1.7074   -0.9494 C   0  0  0  0  0  0  0  0  0  0  0  0
   -1.3395   -2.0947    0.0045 C   0  0  0  0  0  0  0  0  0  0  0  0
   -1.6385   -1.9616    1.3539 C   0  0  0  0  0  0  0  0  0  0  0  0
   -0.7517   -2.3300    2.3211 O   0  0  0  0  0  0  0  0  0  0  0  0
   -2.8642   -1.4504    1.7605 C   0  0  0  0  0  0  0  0  0  0  0  0
   -3.8112   -1.0680    0.8074 C   0  0  0  0  0  0  0  0  0  0  0  0
   -5.7194    1.2472   -0.6389 C   0  0  0  0  0  0  0  0  0  0  0  0
   -5.4225    2.0741    0.2102 O   0  0  0  0  0  0  0  0  0  0  0  0
   -6.9572    0.7077   -0.6468 O   0  0  0  0  0  0  0  0  0  0  0  0
   -2.2256    4.7136   -3.3179 C   0  0  1  0  0  0  0  0  0  0  0  0
   -3.0849    5.9234   -2.9688 C   0  0  0  0  0  0  0  0  0  0  0  0
   -0.8513    5.1443   -3.4156 O   0  0  0  0  0  0  0  0  0  0  0  0
    2.3235    1.0195    3.0995 C   0  0  0  0  0  0  0  0  0  0  0  0
    2.0618    0.4752    4.5073 C   0  0  0  0  0  0  0  0  0  0  0  0
    3.6975    1.6951    3.0527 C   0  0  0  0  0  0  0  0  0  0  0  0
    3.3391   -5.2908   -1.1760 H   0  0  0  0  0  0  0  0  0  0  0  0
    4.3748   -3.8549   -1.1239 H   0  0  0  0  0  0  0  0  0  0  0  0
    2.6493   -3.7261   -0.7497 H   0  0  0  0  0  0  0  0  0  0  0  0
    2.9706   -5.1475    1.2780 H   0  0  0  0  0  0  0  0  0  0  0  0
    5.2168   -5.9480    1.9379 H   0  0  0  0  0  0  0  0  0  0  0  0
    5.9457   -5.1509    0.5304 H   0  0  0  0  0  0  0  0  0  0  0  0
    4.8329   -6.5127    0.3142 H   0  0  0  0  0  0  0  0  0  0  0  0
    4.9156   -2.7735    1.1009 H   0  0  0  0  0  0  0  0  0  0  0  0
    4.5923   -2.7143    3.5118 H   0  0  0  0  0  0  0  0  0  0  0  0
    3.8437   -4.1550    3.4658 H   0  0  0  0  0  0  0  0  0  0  0  0
    4.1090   -0.8190    1.8970 H   0  0  0  0  0  0  0  0  0  0  0  0
    1.1654   -0.5605    2.2010 H   0  0  0  0  0  0  0  0  0  0  0  0
    0.1053    0.8027    0.7353 H   0  0  0  0  0  0  0  0  0  0  0  0
    1.4718    2.3062   -1.3028 H   0  0  0  0  0  0  0  0  0  0  0  0
    0.0007   -0.2404   -2.2514 H   0  0  0  0  0  0  0  0  0  0  0  0
    1.7505   -0.1976   -2.0848 H   0  0  0  0  0  0  0  0  0  0  0  0
   -0.2410    1.4677   -4.0955 H   0  0  0  0  0  0  0  0  0  0  0  0
   -0.3139    3.3032   -2.7328 H   0  0  0  0  0  0  0  0  0  0  0  0
   -2.4581    4.0339   -1.2554 H   0  0  0  0  0  0  0  0  0  0  0  0
   -3.0090    1.4828   -1.0067 H   0  0  0  0  0  0  0  0  0  0  0  0
   -5.3905    0.8711   -2.6925 H   0  0  0  0  0  0  0  0  0  0  0  0
   -5.4776   -1.3368   -1.4065 H   0  0  0  0  0  0  0  0  0  0  0  0
   -4.1999   -1.1631   -2.5832 H   0  0  0  0  0  0  0  0  0  0  0  0
   -2.0454   -1.8262   -2.0041 H   0  0  0  0  0  0  0  0  0  0  0  0
   -0.3870   -2.5055   -0.3173 H   0  0  0  0  0  0  0  0  0  0  0  0
    0.0737   -2.6605    1.8996 H   0  0  0  0  0  0  0  0  0  0  0  0
   -3.0875   -1.3576    2.8196 H   0  0  0  0  0  0  0  0  0  0  0  0
   -4.7694   -0.6893    1.1532 H   0  0  0  0  0  0  0  0  0  0  0  0
   -7.4177    1.1664    0.0878 H   0  0  0  0  0  0  0  0  0  0  0  0
   -2.5006    4.3310   -4.3076 H   0  0  0  0  0  0  0  0  0  0  0  0
   -2.9862    6.6959   -3.7392 H   0  0  0  0  0  0  0  0  0  0  0  0
   -4.1425    5.6614   -2.8783 H   0  0  0  0  0  0  0  0  0  0  0  0
   -2.7542    6.3779   -2.0284 H   0  0  0  0  0  0  0  0  0  0  0  0
   -0.8253    5.8640   -4.0730 H   0  0  0  0  0  0  0  0  0  0  0  0
    1.5731    1.7975    2.9051 H   0  0  0  0  0  0  0  0  0  0  0  0
    1.0646    0.0270    4.5721 H   0  0  0  0  0  0  0  0  0  0  0  0
    2.1130    1.2796    5.2490 H   0  0  0  0  0  0  0  0  0  0  0  0
    2.7964   -0.2872    4.7873 H   0  0  0  0  0  0  0  0  0  0  0  0
    4.5043    0.9930    3.2864 H   0  0  0  0  0  0  0  0  0  0  0  0
    3.8950    2.1299    2.0683 H   0  0  0  0  0  0  0  0  0  0  0  0
    3.7475    2.5093    3.7841 H   0  0  0  0  0  0  0  0  0  0  0  0
  1  2  1  0
  2  3  1  0
  2  4  1  0
  4  5  1  0
  4  6  1  0
  6  7  2  0
  6  8  1  0
  8  9  1  0
  9 10  1  0
 10 11  2  0
 10 12  1  0
 12 13  1  0
 13 14  1  0
 14 15  1  0
 13 16  1  0
 16 17  2  0
 16 18  1  0
 18 19  1  0
 19 20  1  0
 20 21  2  0
 20 22  1  0
 22 23  1  0
 23 24  1  0
 24 25  1  0
 25 26  2  0
 26 27  1  0
 27 28  2  0
 28 29  1  0
 28 30  1  0
 30 31  2  0
 23 32  1  0
 32 33  2  0
 32 34  1  0
 19 35  1  0
 35 36  1  0
 35 37  1  0
  9 38  1  0
 38 39  1  0
 38 40  1  0
 31 25  1  0
  1 41  1  0
  1 42  1  0
  1 43  1  0
  2 44  1  0
  3 45  1  0
  3 46  1  0
  3 47  1  0
  4 48  1  6
  5 49  1  0
  5 50  1  0
  8 51  1  0
  9 52  1  1
 12 53  1  0
 13 54  1  6
 14 55  1  0
 14 56  1  0
 15 57  1  0
 18 58  1  0
 19 59  1  1
 22 60  1  0
 23 61  1  6
 24 62  1  0
 24 63  1  0
 26 64  1  0
 27 65  1  0
 29 66  1  0
 30 67  1  0
 31 68  1  0
 34 69  1  0
 35 70  1  6
 36 71  1  0
 36 72  1  0
 36 73  1  0
 37 74  1  0
 38 75  1  0
 39 76  1  0
 39 77  1  0
 39 78  1  0
 40 79  1  0
 40 80  1  0
 40 81  1  0
M  END
$$$$
VVCTY.sdf
     RDKit          3D

 81 81  0  0  0  0  0  0  0  0999 V2000
    4.8716    0.8277   -2.9816 C   0  0  0  0  0  0  0  0  0  0  0  0
    4.9342   -0.3019   -1.9470 C   0  0  0  0  0  0  0  0  0  0  0  0
    6.1085   -1.2299   -2.2814 C   0  0  0  0  0  0  0  0  0  0  0  0
    4.9685    0.2673   -0.5090 C   0  0  2  0  0  0  0  0  0  0  0  0
    6.2419    0.9475   -0.1825 N   0  0  0  0  0  0  0  0  0  0  0  0
    4.6647   -0.8016    0.5720 C   0  0  0  0  0  0  0  0  0  0  0  0
    4.4655   -1.9926    0.3444 O   0  0  0  0  0  0  0  0  0  0  0  0
    4.6021   -0.2746    1.8554 N   0  0  0  0  0  0  0  0  0  0  0  0
    4.1556   -1.1080    2.9785 C   0  0  2  0  0  0  0  0  0  0  0  0
    2.6106   -1.1794    2.8916 C   0  0  0  0  0  0  0  0  0  0  0  0
    1.8591   -0.4006    3.4682 O   0  0  0  0  0  0  0  0  0  0  0  0
    2.1677   -2.1234    1.9776 N   0  0  0  0  0  0  0  0  0  0  0  0
    0.7990   -2.1202    1.4629 C   0  0  1  0  0  0  0  0  0  0  0  0
   -0.3136   -2.1676    2.5235 C   0  0  0  0  0  0  0  0  0  0  0  0
   -0.1747   -3.6087    3.6408 S   0  0  0  0  0  0  0  0  0  0  0  0
    0.6298   -0.9324    0.4796 C   0  0  0  0  0  0  0  0  0  0  0  0
    1.5279   -0.1296    0.2174 O   0  0  0  0  0  0  0  0  0  0  0  0
   -0.5792   -0.8656   -0.1677 N   0  0  0  0  0  0  0  0  0  0  0  0
   -0.9224    0.1867   -1.1418 C   0  0  2  0  0  0  0  0  0  0  0  0
   -2.4405    0.0610   -1.3453 C   0  0  0  0  0  0  0  0  0  0  0  0
   -3.0247   -1.0144   -1.2070 O   0  0  0  0  0  0  0  0  0  0  0  0
   -3.0899    1.2189   -1.6926 N   0  0  0  0  0  0  0  0  0  0  0  0
   -4.5436    1.2639   -1.9004 C   0  0  1  0  0  0  0  0  0  0  0  0
   -5.2892    1.3425   -0.5613 C   0  0  0  0  0  0  0  0  0  0  0  0
   -6.7832    1.1674   -0.6907 C   0  0  0  0  0  0  0  0  0  0  0  0
   -7.3245   -0.0968   -0.9648 C   0  0  0  0  0  0  0  0  0  0  0  0
   -8.7039   -0.2603   -1.0951 C   0  0  0  0  0  0  0  0  0  0  0  0
   -9.5444    0.8361   -0.9498 C   0  0  0  0  0  0  0  0  0  0  0  0
  -10.8855    0.6305   -1.0835 O   0  0  0  0  0  0  0  0  0  0  0  0
   -9.0281    2.0981   -0.6755 C   0  0  0  0  0  0  0  0  0  0  0  0
   -7.6470    2.2629   -0.5461 C   0  0  0  0  0  0  0  0  0  0  0  0
   -4.8248    2.5064   -2.7369 C   0  0  0  0  0  0  0  0  0  0  0  0
   -4.2317    3.5723   -2.6422 O   0  0  0  0  0  0  0  0  0  0  0  0
   -5.8089    2.3435   -3.6392 O   0  0  0  0  0  0  0  0  0  0  0  0
   -0.1160    0.0382   -2.4559 C   0  0  1  0  0  0  0  0  0  0  0  0
   -0.7415    0.6965   -3.6799 C   0  0  0  0  0  0  0  0  0  0  0  0
    1.1786    0.6429   -2.3114 O   0  0  0  0  0  0  0  0  0  0  0  0
    4.7180   -0.5942    4.3227 C   0  0  0  0  0  0  0  0  0  0  0  0
    4.3761    0.8585    4.6680 C   0  0  0  0  0  0  0  0  0  0  0  0
    4.3150   -1.5178    5.4762 C   0  0  0  0  0  0  0  0  0  0  0  0
    4.7609    0.4201   -3.9923 H   0  0  0  0  0  0  0  0  0  0  0  0
    4.0142    1.4822   -2.7931 H   0  0  0  0  0  0  0  0  0  0  0  0
    5.7781    1.4418   -2.9649 H   0  0  0  0  0  0  0  0  0  0  0  0
    4.0135   -0.8917   -2.0531 H   0  0  0  0  0  0  0  0  0  0  0  0
    7.0591   -0.6875   -2.3155 H   0  0  0  0  0  0  0  0  0  0  0  0
    5.9602   -1.6891   -3.2653 H   0  0  0  0  0  0  0  0  0  0  0  0
    6.2058   -2.0406   -1.5540 H   0  0  0  0  0  0  0  0  0  0  0  0
    4.1661    1.0120   -0.4226 H   0  0  0  0  0  0  0  0  0  0  0  0
    7.0017    0.2702   -0.2553 H   0  0  0  0  0  0  0  0  0  0  0  0
    6.2275    1.2230    0.7992 H   0  0  0  0  0  0  0  0  0  0  0  0
    4.3179    0.6986    1.8912 H   0  0  0  0  0  0  0  0  0  0  0  0
    4.5450   -2.1231    2.8221 H   0  0  0  0  0  0  0  0  0  0  0  0
    2.8847   -2.4318    1.3175 H   0  0  0  0  0  0  0  0  0  0  0  0
    0.7306   -3.0244    0.8427 H   0  0  0  0  0  0  0  0  0  0  0  0
   -0.3454   -1.2588    3.1303 H   0  0  0  0  0  0  0  0  0  0  0  0
   -1.2930   -2.2439    2.0402 H   0  0  0  0  0  0  0  0  0  0  0  0
   -0.1697   -4.5532    2.6894 H   0  0  0  0  0  0  0  0  0  0  0  0
   -1.2562   -1.6209   -0.0871 H   0  0  0  0  0  0  0  0  0  0  0  0
   -0.6972    1.1470   -0.6617 H   0  0  0  0  0  0  0  0  0  0  0  0
   -2.5933    2.1070   -1.7000 H   0  0  0  0  0  0  0  0  0  0  0  0
   -4.8209    0.3713   -2.4731 H   0  0  0  0  0  0  0  0  0  0  0  0
   -5.0708    2.2981   -0.0653 H   0  0  0  0  0  0  0  0  0  0  0  0
   -4.9193    0.5710    0.1270 H   0  0  0  0  0  0  0  0  0  0  0  0
   -6.6760   -0.9640   -1.0761 H   0  0  0  0  0  0  0  0  0  0  0  0
   -9.1212   -1.2405   -1.3073 H   0  0  0  0  0  0  0  0  0  0  0  0
  -11.3442    1.4740   -0.9396 H   0  0  0  0  0  0  0  0  0  0  0  0
   -9.6789    2.9587   -0.5587 H   0  0  0  0  0  0  0  0  0  0  0  0
   -7.2517    3.2533   -0.3299 H   0  0  0  0  0  0  0  0  0  0  0  0
   -5.8858    3.2070   -4.0958 H   0  0  0  0  0  0  0  0  0  0  0  0
    0.0481   -1.0230   -2.6781 H   0  0  0  0  0  0  0  0  0  0  0  0
   -0.9020    1.7670   -3.5122 H   0  0  0  0  0  0  0  0  0  0  0  0
   -0.0658    0.6174   -4.5395 H   0  0  0  0  0  0  0  0  0  0  0  0
   -1.6904    0.2285   -3.9568 H   0  0  0  0  0  0  0  0  0  0  0  0
    1.5277    0.3883   -1.4290 H   0  0  0  0  0  0  0  0  0  0  0  0
    5.8135   -0.6401    4.2436 H   0  0  0  0  0  0  0  0  0  0  0  0
    4.6894    1.5463    3.8773 H   0  0  0  0  0  0  0  0  0  0  0  0
    3.3079    1.0039    4.8482 H   0  0  0  0  0  0  0  0  0  0  0  0
    4.9002    1.1614    5.5818 H   0  0  0  0  0  0  0  0  0  0  0  0
    4.8185   -1.2206    6.4026 H   0  0  0  0  0  0  0  0  0  0  0  0
    3.2360   -1.4900    5.6596 H   0  0  0  0  0  0  0  0  0  0  0  0
    4.5979   -2.5540    5.2632 H   0  0  0  0  0  0  0  0  0  0  0  0
  1  2  1  0
  2  3  1  0
  2  4  1  0
  4  5  1  0
  4  6  1  0
  6  7  2  0
  6  8  1  0
  8  9  1  0
  9 10  1  0
 10 11  2  0
 10 12  1  0
 12 13  1  0
 13 14  1  0
 14 15  1  0
 13 16  1  0
 16 17  2  0
 16 18  1  0
 18 19  1  0
 19 20  1  0
 20 21  2  0
 20 22  1  0
 22 23  1  0
 23 24  1  0
 24 25  1  0
 25 26  2  0
 26 27  1  0
 27 28  2  0
 28 29  1  0
 28 30  1  0
 30 31  2  0
 23 32  1  0
 32 33  2  0
 32 34  1  0
 19 35  1  0
 35 36  1  0
 35 37  1  0
  9 38  1  0
 38 39  1  0
 38 40  1  0
 31 25  1  0
  1 41  1  0
  1 42  1  0
  1 43  1  0
  2 44  1  0
  3 45  1  0
  3 46  1  0
  3 47  1  0
  4 48  1  6
  5 49  1  0
  5 50  1  0
  8 51  1  0
  9 52  1  6
 12 53  1  0
 13 54  1  6
 14 55  1  0
 14 56  1  0
 15 57  1  0
 18 58  1  0
 19 59  1  1
 22 60  1  0
 23 61  1  6
 24 62  1  0
 24 63  1  0
 26 64  1  0
 27 65  1  0
 29 66  1  0
 30 67  1  0
 31 68  1  0
 34 69  1  0
 35 70  1  6
 36 71  1  0
 36 72  1  0
 36 73  1  0
 37 74  1  0
 38 75  1  0
 39 76  1  0
 39 77  1  0
 39 78  1  0
 40 79  1  0
 40 80  1  0
 40 81  1  0
M  END
$$$$
VVCTY.sdf
     RDKit          3D

 81 81  0  0  0  0  0  0  0  0999 V2000
    9.2190    0.2693   -1.4087 C   0  0  0  0  0  0  0  0  0  0  0  0
    8.1790   -0.6118   -0.7035 C   0  0  0  0  0  0  0  0  0  0  0  0
    7.5782   -1.5764   -1.7360 C   0  0  0  0  0  0  0  0  0  0  0  0
    7.0712    0.2259   -0.0218 C   0  0  2  0  0  0  0  0  0  0  0  0
    7.6449    1.2642    0.8665 N   0  0  0  0  0  0  0  0  0  0  0  0
    6.1171   -0.6399    0.8446 C   0  0  0  0  0  0  0  0  0  0  0  0
    6.3741   -1.7775    1.2241 O   0  0  0  0  0  0  0  0  0  0  0  0
    4.9713    0.0437    1.2208 N   0  0  0  0  0  0  0  0  0  0  0  0
    3.8614   -0.6726    1.8466 C   0  0  2  0  0  0  0  0  0  0  0  0
    2.8883   -1.1034    0.7258 C   0  0  0  0  0  0  0  0  0  0  0  0
    2.8865   -0.5730   -0.3858 O   0  0  0  0  0  0  0  0  0  0  0  0
    2.0020   -2.0973    1.0795 N   0  0  0  0  0  0  0  0  0  0  0  0
    0.8444   -2.3874    0.2359 C   0  0  1  0  0  0  0  0  0  0  0  0
    0.3988   -3.8508    0.3517 C   0  0  0  0  0  0  0  0  0  0  0  0
    0.0614   -4.3906    2.0651 S   0  0  0  0  0  0  0  0  0  0  0  0
   -0.2966   -1.4139    0.6015 C   0  0  0  0  0  0  0  0  0  0  0  0
   -0.2951   -0.7394    1.6307 O   0  0  0  0  0  0  0  0  0  0  0  0
   -1.3221   -1.3592   -0.3094 N   0  0  0  0  0  0  0  0  0  0  0  0
   -2.5214   -0.5478   -0.0998 C   0  0  2  0  0  0  0  0  0  0  0  0
   -3.5884   -1.0486   -1.0983 C   0  0  0  0  0  0  0  0  0  0  0  0
   -3.3550   -1.9532   -1.9020 O   0  0  0  0  0  0  0  0  0  0  0  0
   -4.8190   -0.4435   -0.9842 N   0  0  0  0  0  0  0  0  0  0  0  0
   -5.8879   -0.7046   -1.9492 C   0  0  1  0  0  0  0  0  0  0  0  0
   -7.2842   -0.5390   -1.3277 C   0  0  0  0  0  0  0  0  0  0  0  0
   -7.5901    0.8446   -0.7959 C   0  0  0  0  0  0  0  0  0  0  0  0
   -8.2021    1.8048   -1.6152 C   0  0  0  0  0  0  0  0  0  0  0  0
   -8.4644    3.0886   -1.1309 C   0  0  0  0  0  0  0  0  0  0  0  0
   -8.1155    3.4120    0.1758 C   0  0  0  0  0  0  0  0  0  0  0  0
   -8.3506    4.6534    0.6879 O   0  0  0  0  0  0  0  0  0  0  0  0
   -7.5140    2.4733    1.0039 C   0  0  0  0  0  0  0  0  0  0  0  0
   -7.2533    1.1906    0.5209 C   0  0  0  0  0  0  0  0  0  0  0  0
   -5.7175    0.1808   -3.1856 C   0  0  0  0  0  0  0  0  0  0  0  0
   -4.9584    1.1286   -3.3189 O   0  0  0  0  0  0  0  0  0  0  0  0
   -6.5225   -0.1829   -4.2077 O   0  0  0  0  0  0  0  0  0  0  0  0
   -2.2627    0.9710   -0.2165 C   0  0  1  0  0  0  0  0  0  0  0  0
   -1.7425    1.4011   -1.5843 C   0  0  0  0  0  0  0  0  0  0  0  0
   -3.4684    1.6928    0.0780 O   0  0  0  0  0  0  0  0  0  0  0  0
    3.1439    0.1769    2.9198 C   0  0  0  0  0  0  0  0  0  0  0  0
    2.6077    1.5089    2.3843 C   0  0  0  0  0  0  0  0  0  0  0  0
    4.0660    0.4314    4.1163 C   0  0  0  0  0  0  0  0  0  0  0  0
    9.9594   -0.3465   -1.9311 H   0  0  0  0  0  0  0  0  0  0  0  0
    9.7662    0.8932   -0.6949 H   0  0  0  0  0  0  0  0  0  0  0  0
    8.7463    0.9270   -2.1462 H   0  0  0  0  0  0  0  0  0  0  0  0
    8.7026   -1.2117    0.0526 H   0  0  0  0  0  0  0  0  0  0  0  0
    6.8779   -2.2796   -1.2763 H   0  0  0  0  0  0  0  0  0  0  0  0
    8.3650   -2.1688   -2.2157 H   0  0  0  0  0  0  0  0  0  0  0  0
    7.0420   -1.0312   -2.5206 H   0  0  0  0  0  0  0  0  0  0  0  0
    6.4724    0.7279   -0.7919 H   0  0  0  0  0  0  0  0  0  0  0  0
    8.2368    0.7969    1.5563 H   0  0  0  0  0  0  0  0  0  0  0  0
    6.8873    1.6842    1.4069 H   0  0  0  0  0  0  0  0  0  0  0  0
    4.6920    0.7881    0.5900 H   0  0  0  0  0  0  0  0  0  0  0  0
    4.2432   -1.5901    2.3115 H   0  0  0  0  0  0  0  0  0  0  0  0
    1.8586   -2.2654    2.0702 H   0  0  0  0  0  0  0  0  0  0  0  0
    1.1154   -2.1884   -0.8086 H   0  0  0  0  0  0  0  0  0  0  0  0
    1.1881   -4.5033   -0.0371 H   0  0  0  0  0  0  0  0  0  0  0  0
   -0.5029   -4.0347   -0.2409 H   0  0  0  0  0  0  0  0  0  0  0  0
   -0.2387   -5.6641    1.7680 H   0  0  0  0  0  0  0  0  0  0  0  0
   -1.3267   -1.9485   -1.1379 H   0  0  0  0  0  0  0  0  0  0  0  0
   -2.9028   -0.7726    0.9050 H   0  0  0  0  0  0  0  0  0  0  0  0
   -4.7875    0.4974   -0.5803 H   0  0  0  0  0  0  0  0  0  0  0  0
   -5.7768   -1.7419   -2.2893 H   0  0  0  0  0  0  0  0  0  0  0  0
   -8.0539   -0.8097   -2.0624 H   0  0  0  0  0  0  0  0  0  0  0  0
   -7.3999   -1.2585   -0.5058 H   0  0  0  0  0  0  0  0  0  0  0  0
   -8.4809    1.5601   -2.6380 H   0  0  0  0  0  0  0  0  0  0  0  0
   -8.9369    3.8158   -1.7834 H   0  0  0  0  0  0  0  0  0  0  0  0
   -8.7789    5.1939    0.0043 H   0  0  0  0  0  0  0  0  0  0  0  0
   -7.2479    2.7386    2.0231 H   0  0  0  0  0  0  0  0  0  0  0  0
   -6.7810    0.4653    1.1804 H   0  0  0  0  0  0  0  0  0  0  0  0
   -6.2719    0.4329   -4.9290 H   0  0  0  0  0  0  0  0  0  0  0  0
   -1.5291    1.2704    0.5403 H   0  0  0  0  0  0  0  0  0  0  0  0
   -0.7959    0.9098   -1.8277 H   0  0  0  0  0  0  0  0  0  0  0  0
   -2.4645    1.1815   -2.3757 H   0  0  0  0  0  0  0  0  0  0  0  0
   -1.5812    2.4845   -1.6050 H   0  0  0  0  0  0  0  0  0  0  0  0
   -3.2466    2.6427    0.0567 H   0  0  0  0  0  0  0  0  0  0  0  0
    2.2816   -0.3912    3.2919 H   0  0  0  0  0  0  0  0  0  0  0  0
    3.4156    2.1651    2.0445 H   0  0  0  0  0  0  0  0  0  0  0  0
    2.0576    2.0416    3.1678 H   0  0  0  0  0  0  0  0  0  0  0  0
    1.9178    1.3545    1.5490 H   0  0  0  0  0  0  0  0  0  0  0  0
    4.4298   -0.5131    4.5345 H   0  0  0  0  0  0  0  0  0  0  0  0
    3.5305    0.9622    4.9108 H   0  0  0  0  0  0  0  0  0  0  0  0
    4.9344    1.0366    3.8356 H   0  0  0  0  0  0  0  0  0  0  0  0
  1  2  1  0
  2  3  1  0
  2  4  1  0
  4  5  1  0
  4  6  1  0
  6  7  2  0
  6  8  1  0
  8  9  1  0
  9 10  1  0
 10 11  2  0
 10 12  1  0
 12 13  1  0
 13 14  1  0
 14 15  1  0
 13 16  1  0
 16 17  2  0
 16 18  1  0
 18 19  1  0
 19 20  1  0
 20 21  2  0
 20 22  1  0
 22 23  1  0
 23 24  1  0
 24 25  1  0
 25 26  2  0
 26 27  1  0
 27 28  2  0
 28 29  1  0
 28 30  1  0
 30 31  2  0
 23 32  1  0
 32 33  2  0
 32 34  1  0
 19 35  1  0
 35 36  1  0
 35 37  1  0
  9 38  1  0
 38 39  1  0
 38 40  1  0
 31 25  1  0
  1 41  1  0
  1 42  1  0
  1 43  1  0
  2 44  1  0
  3 45  1  0
  3 46  1  0
  3 47  1  0
  4 48  1  6
  5 49  1  0
  5 50  1  0
  8 51  1  0
  9 52  1  1
 12 53  1  0
 13 54  1  6
 14 55  1  0
 14 56  1  0
 15 57  1  0
 18 58  1  0
 19 59  1  1
 22 60  1  0
 23 61  1  6
 24 62  1  0
 24 63  1  0
 26 64  1  0
 27 65  1  0
 29 66  1  0
 30 67  1  0
 31 68  1  0
 34 69  1  0
 35 70  1  1
 36 71  1  0
 36 72  1  0
 36 73  1  0
 37 74  1  0
 38 75  1  0
 39 76  1  0
 39 77  1  0
 39 78  1  0
 40 79  1  0
 40 80  1  0
 40 81  1  0
M  END
$$$$
VVCTY.sdf
     RDKit          3D

 81 81  0  0  0  0  0  0  0  0999 V2000
    6.6828   -0.5006   -1.8002 C   0  0  0  0  0  0  0  0  0  0  0  0
    7.8389   -0.3462   -0.8074 C   0  0  0  0  0  0  0  0  0  0  0  0
    8.4269   -1.7251   -0.4872 C   0  0  0  0  0  0  0  0  0  0  0  0
    7.4284    0.4669    0.4431 C   0  0  2  0  0  0  0  0  0  0  0  0
    8.6074    0.7815    1.2822 N   0  0  0  0  0  0  0  0  0  0  0  0
    6.3726   -0.2515    1.3198 C   0  0  0  0  0  0  0  0  0  0  0  0
    6.6834   -0.9862    2.2561 O   0  0  0  0  0  0  0  0  0  0  0  0
    5.0690    0.0214    0.9848 N   0  0  0  0  0  0  0  0  0  0  0  0
    3.9389   -0.6599    1.6097 C   0  0  2  0  0  0  0  0  0  0  0  0
    2.9916   -1.1071    0.4744 C   0  0  0  0  0  0  0  0  0  0  0  0
    3.0621   -0.6349   -0.6609 O   0  0  0  0  0  0  0  0  0  0  0  0
    2.0597   -2.0584    0.8332 N   0  0  0  0  0  0  0  0  0  0  0  0
    0.9123   -2.3255   -0.0376 C   0  0  1  0  0  0  0  0  0  0  0  0
    0.4936   -3.8010   -0.0243 C   0  0  0  0  0  0  0  0  0  0  0  0
    0.2089   -4.4900    1.6428 S   0  0  0  0  0  0  0  0  0  0  0  0
   -0.2421   -1.3982    0.3957 C   0  0  0  0  0  0  0  0  0  0  0  0
   -0.2377   -0.7987    1.4707 O   0  0  0  0  0  0  0  0  0  0  0  0
   -1.2724   -1.2914   -0.5030 N   0  0  0  0  0  0  0  0  0  0  0  0
   -2.4893   -0.5282   -0.2220 C   0  0  2  0  0  0  0  0  0  0  0  0
   -3.5500   -0.9695   -1.2548 C   0  0  0  0  0  0  0  0  0  0  0  0
   -3.2986   -1.7977   -2.1319 O   0  0  0  0  0  0  0  0  0  0  0  0
   -4.7940   -0.4067   -1.0859 N   0  0  0  0  0  0  0  0  0  0  0  0
   -5.8623   -0.6136   -2.0648 C   0  0  1  0  0  0  0  0  0  0  0  0
   -7.2583   -0.5346   -1.4259 C   0  0  0  0  0  0  0  0  0  0  0  0
   -7.5938    0.7921   -0.7791 C   0  0  0  0  0  0  0  0  0  0  0  0
   -8.2327    1.8025   -1.5131 C   0  0  0  0  0  0  0  0  0  0  0  0
   -8.5224    3.0348   -0.9223 C   0  0  0  0  0  0  0  0  0  0  0  0
   -8.1738    3.2562    0.4056 C   0  0  0  0  0  0  0  0  0  0  0  0
   -8.4350    4.4446    1.0205 O   0  0  0  0  0  0  0  0  0  0  0  0
   -7.5459    2.2663    1.1502 C   0  0  0  0  0  0  0  0  0  0  0  0
   -7.2579    1.0349    0.5607 C   0  0  0  0  0  0  0  0  0  0  0  0
   -5.7209    0.3753   -3.2241 C   0  0  0  0  0  0  0  0  0  0  0  0
   -4.9846    1.3484   -3.2818 O   0  0  0  0  0  0  0  0  0  0  0  0
   -6.5245    0.0790   -4.2689 O   0  0  0  0  0  0  0  0  0  0  0  0
   -2.2676    1.0008   -0.2130 C   0  0  1  0  0  0  0  0  0  0  0  0
   -1.7669    1.5556   -1.5426 C   0  0  0  0  0  0  0  0  0  0  0  0
   -3.4878    1.6660    0.1467 O   0  0  0  0  0  0  0  0  0  0  0  0
    3.2087    0.2233    2.6474 C   0  0  0  0  0  0  0  0  0  0  0  0
    2.7110    1.5488    2.0607 C   0  0  0  0  0  0  0  0  0  0  0  0
    4.0899    0.4947    3.8700 C   0  0  0  0  0  0  0  0  0  0  0  0
    5.9034   -1.1659   -1.4162 H   0  0  0  0  0  0  0  0  0  0  0  0
    6.2297    0.4694   -2.0294 H   0  0  0  0  0  0  0  0  0  0  0  0
    7.0427   -0.9281   -2.7427 H   0  0  0  0  0  0  0  0  0  0  0  0
    8.6213    0.2261   -1.3258 H   0  0  0  0  0  0  0  0  0  0  0  0
    8.7389   -2.2308   -1.4079 H   0  0  0  0  0  0  0  0  0  0  0  0
    9.3103   -1.6476    0.1536 H   0  0  0  0  0  0  0  0  0  0  0  0
    7.6964   -2.3700    0.0116 H   0  0  0  0  0  0  0  0  0  0  0  0
    7.0074    1.4275    0.1209 H   0  0  0  0  0  0  0  0  0  0  0  0
    8.2940    1.3600    2.0636 H   0  0  0  0  0  0  0  0  0  0  0  0
    8.8955   -0.0912    1.7359 H   0  0  0  0  0  0  0  0  0  0  0  0
    4.8690    0.4917    0.1068 H   0  0  0  0  0  0  0  0  0  0  0  0
    4.3032   -1.5731    2.0972 H   0  0  0  0  0  0  0  0  0  0  0  0
    1.8486   -2.1269    1.8240 H   0  0  0  0  0  0  0  0  0  0  0  0
    1.1738   -2.0516   -1.0671 H   0  0  0  0  0  0  0  0  0  0  0  0
   -0.4225   -3.9491   -0.6049 H   0  0  0  0  0  0  0  0  0  0  0  0
    1.2793   -4.4071   -0.4882 H   0  0  0  0  0  0  0  0  0  0  0  0
    1.4966   -4.5117    2.0186 H   0  0  0  0  0  0  0  0  0  0  0  0
   -1.2884   -1.8436   -1.3572 H   0  0  0  0  0  0  0  0  0  0  0  0
   -2.8597   -0.8452    0.7619 H   0  0  0  0  0  0  0  0  0  0  0  0
   -4.7838    0.4974   -0.6045 H   0  0  0  0  0  0  0  0  0  0  0  0
   -5.7280   -1.6160   -2.4902 H   0  0  0  0  0  0  0  0  0  0  0  0
   -7.3516   -1.3226   -0.6664 H   0  0  0  0  0  0  0  0  0  0  0  0
   -8.0258   -0.7618   -2.1773 H   0  0  0  0  0  0  0  0  0  0  0  0
   -8.5116    1.6373   -2.5517 H   0  0  0  0  0  0  0  0  0  0  0  0
   -9.0154    3.8024   -1.5100 H   0  0  0  0  0  0  0  0  0  0  0  0
   -8.8823    5.0288    0.3869 H   0  0  0  0  0  0  0  0  0  0  0  0
   -7.2805    2.4517    2.1871 H   0  0  0  0  0  0  0  0  0  0  0  0
   -6.7654    0.2683    1.1557 H   0  0  0  0  0  0  0  0  0  0  0  0
   -6.2931    0.7580   -4.9380 H   0  0  0  0  0  0  0  0  0  0  0  0
   -1.5362    1.2541    0.5625 H   0  0  0  0  0  0  0  0  0  0  0  0
   -1.6308    2.6405   -1.4736 H   0  0  0  0  0  0  0  0  0  0  0  0
   -0.8108    1.1088   -1.8308 H   0  0  0  0  0  0  0  0  0  0  0  0
   -2.4890    1.3859   -2.3460 H   0  0  0  0  0  0  0  0  0  0  0  0
   -3.2908    2.6201    0.1995 H   0  0  0  0  0  0  0  0  0  0  0  0
    2.3260   -0.3211    3.0062 H   0  0  0  0  0  0  0  0  0  0  0  0
    2.0326    1.3813    1.2183 H   0  0  0  0  0  0  0  0  0  0  0  0
    2.1590    2.1188    2.8161 H   0  0  0  0  0  0  0  0  0  0  0  0
    3.5396    2.1746    1.7132 H   0  0  0  0  0  0  0  0  0  0  0  0
    3.5245    1.0301    4.6405 H   0  0  0  0  0  0  0  0  0  0  0  0
    4.9618    1.1053    3.6141 H   0  0  0  0  0  0  0  0  0  0  0  0
    4.4446   -0.4429    4.3105 H   0  0  0  0  0  0  0  0  0  0  0  0
  1  2  1  0
  2  3  1  0
  2  4  1  0
  4  5  1  0
  4  6  1  0
  6  7  2  0
  6  8  1  0
  8  9  1  0
  9 10  1  0
 10 11  2  0
 10 12  1  0
 12 13  1  0
 13 14  1  0
 14 15  1  0
 13 16  1  0
 16 17  2  0
 16 18  1  0
 18 19  1  0
 19 20  1  0
 20 21  2  0
 20 22  1  0
 22 23  1  0
 23 24  1  0
 24 25  1  0
 25 26  2  0
 26 27  1  0
 27 28  2  0
 28 29  1  0
 28 30  1  0
 30 31  2  0
 23 32  1  0
 32 33  2  0
 32 34  1  0
 19 35  1  0
 35 36  1  0
 35 37  1  0
  9 38  1  0
 38 39  1  0
 38 40  1  0
 31 25  1  0
  1 41  1  0
  1 42  1  0
  1 43  1  0
  2 44  1  0
  3 45  1  0
  3 46  1  0
  3 47  1  0
  4 48  1  6
  5 49  1  0
  5 50  1  0
  8 51  1  0
  9 52  1  1
 12 53  1  0
 13 54  1  6
 14 55  1  0
 14 56  1  0
 15 57  1  0
 18 58  1  0
 19 59  1  1
 22 60  1  0
 23 61  1  6
 24 62  1  0
 24 63  1  0
 26 64  1  0
 27 65  1  0
 29 66  1  0
 30 67  1  0
 31 68  1  0
 34 69  1  0
 35 70  1  1
 36 71  1  0
 36 72  1  0
 36 73  1  0
 37 74  1  0
 38 75  1  0
 39 76  1  0
 39 77  1  0
 39 78  1  0
 40 79  1  0
 40 80  1  0
 40 81  1  0
M  END
$$$$
VVCTY.sdf
     RDKit          3D

 81 81  0  0  0  0  0  0  0  0999 V2000
    4.5902    0.9721   -2.4114 C   0  0  0  0  0  0  0  0  0  0  0  0
    3.4395    0.1031   -2.9314 C   0  0  0  0  0  0  0  0  0  0  0  0
    2.6426    0.8789   -3.9839 C   0  0  0  0  0  0  0  0  0  0  0  0
    2.5255   -0.4427   -1.8095 C   0  0  2  0  0  0  0  0  0  0  0  0
    1.8738    0.6007   -0.9774 N   0  0  0  0  0  0  0  0  0  0  0  0
    3.2677   -1.4575   -0.8976 C   0  0  0  0  0  0  0  0  0  0  0  0
    4.1765   -2.1833   -1.2848 O   0  0  0  0  0  0  0  0  0  0  0  0
    2.7415   -1.5048    0.3767 N   0  0  0  0  0  0  0  0  0  0  0  0
    3.0772   -2.5534    1.3441 C   0  0  2  0  0  0  0  0  0  0  0  0
    2.0021   -2.5758    2.4580 C   0  0  0  0  0  0  0  0  0  0  0  0
    1.7357   -3.5814    3.1104 O   0  0  0  0  0  0  0  0  0  0  0  0
    1.4182   -1.3541    2.7253 N   0  0  0  0  0  0  0  0  0  0  0  0
    0.4190   -1.1827    3.7878 C   0  0  1  0  0  0  0  0  0  0  0  0
    1.0476   -0.8449    5.1446 C   0  0  0  0  0  0  0  0  0  0  0  0
    1.9922    0.7239    5.1326 S   0  0  0  0  0  0  0  0  0  0  0  0
   -0.6330   -0.1415    3.3538 C   0  0  0  0  0  0  0  0  0  0  0  0
   -1.3012    0.5209    4.1410 O   0  0  0  0  0  0  0  0  0  0  0  0
   -0.8174   -0.0882    1.9937 N   0  0  0  0  0  0  0  0  0  0  0  0
   -1.8222    0.7328    1.3206 C   0  0  2  0  0  0  0  0  0  0  0  0
   -1.8200    0.2715   -0.1561 C   0  0  0  0  0  0  0  0  0  0  0  0
   -1.2256   -0.7457   -0.5211 O   0  0  0  0  0  0  0  0  0  0  0  0
   -2.5779    1.0273   -1.0141 N   0  0  0  0  0  0  0  0  0  0  0  0
   -2.6440    0.7304   -2.4442 C   0  0  1  0  0  0  0  0  0  0  0  0
   -3.8612    1.4010   -3.0983 C   0  0  0  0  0  0  0  0  0  0  0  0
   -5.1790    0.8803   -2.5713 C   0  0  0  0  0  0  0  0  0  0  0  0
   -5.6784   -0.3558   -3.0081 C   0  0  0  0  0  0  0  0  0  0  0  0
   -6.8874   -0.8482   -2.5112 C   0  0  0  0  0  0  0  0  0  0  0  0
   -7.5965   -0.1030   -1.5754 C   0  0  0  0  0  0  0  0  0  0  0  0
   -8.7798   -0.5457   -1.0630 O   0  0  0  0  0  0  0  0  0  0  0  0
   -7.1170    1.1225   -1.1305 C   0  0  0  0  0  0  0  0  0  0  0  0
   -5.9090    1.6148   -1.6261 C   0  0  0  0  0  0  0  0  0  0  0  0
   -1.3651    1.2111   -3.1403 C   0  0  0  0  0  0  0  0  0  0  0  0
   -0.4456    1.8523   -2.6516 O   0  0  0  0  0  0  0  0  0  0  0  0
   -1.3088    0.8419   -4.4387 O   0  0  0  0  0  0  0  0  0  0  0  0
   -1.5932    2.2512    1.5074 C   0  0  1  0  0  0  0  0  0  0  0  0
   -0.2466    2.7468    0.9936 C   0  0  0  0  0  0  0  0  0  0  0  0
   -2.6309    3.0042    0.8555 O   0  0  0  0  0  0  0  0  0  0  0  0
    4.5146   -2.4000    1.8969 C   0  0  0  0  0  0  0  0  0  0  0  0
    4.7272   -1.1241    2.7145 C   0  0  0  0  0  0  0  0  0  0  0  0
    4.9359   -3.6221    2.7181 C   0  0  0  0  0  0  0  0  0  0  0  0
    5.1767    0.4470   -1.6512 H   0  0  0  0  0  0  0  0  0  0  0  0
    4.2302    1.9106   -1.9780 H   0  0  0  0  0  0  0  0  0  0  0  0
    5.2708    1.2305   -3.2303 H   0  0  0  0  0  0  0  0  0  0  0  0
    3.8923   -0.7569   -3.4431 H   0  0  0  0  0  0  0  0  0  0  0  0
    2.2226    1.8034   -3.5753 H   0  0  0  0  0  0  0  0  0  0  0  0
    3.2852    1.1522   -4.8279 H   0  0  0  0  0  0  0  0  0  0  0  0
    1.8213    0.2707   -4.3762 H   0  0  0  0  0  0  0  0  0  0  0  0
    1.7181   -1.0262   -2.2722 H   0  0  0  0  0  0  0  0  0  0  0  0
    1.2093    1.1178   -1.5668 H   0  0  0  0  0  0  0  0  0  0  0  0
    2.5755    1.2843   -0.6957 H   0  0  0  0  0  0  0  0  0  0  0  0
    1.8479   -1.0199    0.4394 H   0  0  0  0  0  0  0  0  0  0  0  0
    2.9905   -3.5043    0.8026 H   0  0  0  0  0  0  0  0  0  0  0  0
    1.9120   -0.5223    2.4164 H   0  0  0  0  0  0  0  0  0  0  0  0
   -0.1261   -2.1298    3.8917 H   0  0  0  0  0  0  0  0  0  0  0  0
    0.2786   -0.7671    5.9200 H   0  0  0  0  0  0  0  0  0  0  0  0
    1.7422   -1.6383    5.4402 H   0  0  0  0  0  0  0  0  0  0  0  0
    0.9197    1.5333    5.1007 H   0  0  0  0  0  0  0  0  0  0  0  0
   -0.4063   -0.8335    1.4331 H   0  0  0  0  0  0  0  0  0  0  0  0
   -2.8035    0.4616    1.7303 H   0  0  0  0  0  0  0  0  0  0  0  0
   -2.8459    1.9552   -0.6826 H   0  0  0  0  0  0  0  0  0  0  0  0
   -2.6829   -0.3602   -2.5572 H   0  0  0  0  0  0  0  0  0  0  0  0
   -3.8477    1.2526   -4.1860 H   0  0  0  0  0  0  0  0  0  0  0  0
   -3.8126    2.4891   -2.9548 H   0  0  0  0  0  0  0  0  0  0  0  0
   -5.1276   -0.9449   -3.7385 H   0  0  0  0  0  0  0  0  0  0  0  0
   -7.2547   -1.8070   -2.8626 H   0  0  0  0  0  0  0  0  0  0  0  0
   -8.9782   -1.4143   -1.4494 H   0  0  0  0  0  0  0  0  0  0  0  0
   -7.6810    1.6919   -0.3973 H   0  0  0  0  0  0  0  0  0  0  0  0
   -5.5431    2.5727   -1.2640 H   0  0  0  0  0  0  0  0  0  0  0  0
   -0.4481    1.1855   -4.7582 H   0  0  0  0  0  0  0  0  0  0  0  0
   -1.6628    2.4904    2.5744 H   0  0  0  0  0  0  0  0  0  0  0  0
   -0.1356    3.8169    1.2011 H   0  0  0  0  0  0  0  0  0  0  0  0
   -0.1713    2.6385   -0.0915 H   0  0  0  0  0  0  0  0  0  0  0  0
    0.5884    2.2205    1.4646 H   0  0  0  0  0  0  0  0  0  0  0  0
   -2.5785    3.9107    1.2140 H   0  0  0  0  0  0  0  0  0  0  0  0
    5.2034   -2.3455    1.0446 H   0  0  0  0  0  0  0  0  0  0  0  0
    5.7861   -1.0080    2.9709 H   0  0  0  0  0  0  0  0  0  0  0  0
    4.4262   -0.2340    2.1531 H   0  0  0  0  0  0  0  0  0  0  0  0
    4.1661   -1.1501    3.6529 H   0  0  0  0  0  0  0  0  0  0  0  0
    4.3643   -3.7049    3.6478 H   0  0  0  0  0  0  0  0  0  0  0  0
    4.7959   -4.5446    2.1451 H   0  0  0  0  0  0  0  0  0  0  0  0
    5.9958   -3.5563    2.9873 H   0  0  0  0  0  0  0  0  0  0  0  0
  1  2  1  0
  2  3  1  0
  2  4  1  0
  4  5  1  0
  4  6  1  0
  6  7  2  0
  6  8  1  0
  8  9  1  0
  9 10  1  0
 10 11  2  0
 10 12  1  0
 12 13  1  0
 13 14  1  0
 14 15  1  0
 13 16  1  0
 16 17  2  0
 16 18  1  0
 18 19  1  0
 19 20  1  0
 20 21  2  0
 20 22  1  0
 22 23  1  0
 23 24  1  0
 24 25  1  0
 25 26  2  0
 26 27  1  0
 27 28  2  0
 28 29  1  0
 28 30  1  0
 30 31  2  0
 23 32  1  0
 32 33  2  0
 32 34  1  0
 19 35  1  0
 35 36  1  0
 35 37  1  0
  9 38  1  0
 38 39  1  0
 38 40  1  0
 31 25  1  0
  1 41  1  0
  1 42  1  0
  1 43  1  0
  2 44  1  0
  3 45  1  0
  3 46  1  0
  3 47  1  0
  4 48  1  6
  5 49  1  0
  5 50  1  0
  8 51  1  0
  9 52  1  6
 12 53  1  0
 13 54  1  1
 14 55  1  0
 14 56  1  0
 15 57  1  0
 18 58  1  0
 19 59  1  1
 22 60  1  0
 23 61  1  1
 24 62  1  0
 24 63  1  0
 26 64  1  0
 27 65  1  0
 29 66  1  0
 30 67  1  0
 31 68  1  0
 34 69  1  0
 35 70  1  1
 36 71  1  0
 36 72  1  0
 36 73  1  0
 37 74  1  0
 38 75  1  0
 39 76  1  0
 39 77  1  0
 39 78  1  0
 40 79  1  0
 40 80  1  0
 40 81  1  0
M  END
$$$$
VVCTY.sdf
     RDKit          3D

 81 81  0  0  0  0  0  0  0  0999 V2000
    9.3239   -1.2965   -2.5050 C   0  0  0  0  0  0  0  0  0  0  0  0
    8.3466   -1.5566   -1.3509 C   0  0  0  0  0  0  0  0  0  0  0  0
    8.9781   -2.5672   -0.3849 C   0  0  0  0  0  0  0  0  0  0  0  0
    6.9776   -2.0618   -1.8659 C   0  0  2  0  0  0  0  0  0  0  0  0
    6.3640   -1.1075   -2.8168 N   0  0  0  0  0  0  0  0  0  0  0  0
    5.9521   -2.3353   -0.7382 C   0  0  0  0  0  0  0  0  0  0  0  0
    5.2891   -3.3683   -0.6938 O   0  0  0  0  0  0  0  0  0  0  0  0
    5.7877   -1.2948    0.1559 N   0  0  0  0  0  0  0  0  0  0  0  0
    4.6180   -1.2551    1.0348 C   0  0  2  0  0  0  0  0  0  0  0  0
    3.5216   -0.4905    0.2578 C   0  0  0  0  0  0  0  0  0  0  0  0
    3.7859    0.3019   -0.6488 O   0  0  0  0  0  0  0  0  0  0  0  0
    2.2369   -0.7208    0.6761 N   0  0  0  0  0  0  0  0  0  0  0  0
    1.0835   -0.1132    0.0176 C   0  0  1  0  0  0  0  0  0  0  0  0
    0.7566   -0.7680   -1.3334 C   0  0  0  0  0  0  0  0  0  0  0  0
    0.3646   -2.5479   -1.2122 S   0  0  0  0  0  0  0  0  0  0  0  0
   -0.1100   -0.1440    0.9911 C   0  0  0  0  0  0  0  0  0  0  0  0
   -0.0705   -0.7266    2.0760 O   0  0  0  0  0  0  0  0  0  0  0  0
   -1.2222    0.5489    0.5870 N   0  0  0  0  0  0  0  0  0  0  0  0
   -2.4646    0.6120    1.3761 C   0  0  2  0  0  0  0  0  0  0  0  0
   -3.5203    1.1816    0.4143 C   0  0  0  0  0  0  0  0  0  0  0  0
   -3.2213    1.9934   -0.4615 O   0  0  0  0  0  0  0  0  0  0  0  0
   -4.7977    0.6978    0.5869 N   0  0  0  0  0  0  0  0  0  0  0  0
   -5.9340    1.2510   -0.1674 C   0  0  1  0  0  0  0  0  0  0  0  0
   -6.9456    0.1427   -0.4838 C   0  0  0  0  0  0  0  0  0  0  0  0
   -8.0674    0.5847   -1.3924 C   0  0  0  0  0  0  0  0  0  0  0  0
   -9.3557    0.7935   -0.8801 C   0  0  0  0  0  0  0  0  0  0  0  0
  -10.3879    1.2164   -1.7186 C   0  0  0  0  0  0  0  0  0  0  0  0
  -10.1362    1.4314   -3.0676 C   0  0  0  0  0  0  0  0  0  0  0  0
  -11.1737    1.8455   -3.8490 O   0  0  0  0  0  0  0  0  0  0  0  0
   -8.8660    1.2288   -3.5962 C   0  0  0  0  0  0  0  0  0  0  0  0
   -7.8324    0.8051   -2.7577 C   0  0  0  0  0  0  0  0  0  0  0  0
   -6.5844    2.3157    0.7112 C   0  0  0  0  0  0  0  0  0  0  0  0
   -6.7632    2.2285    1.9181 O   0  0  0  0  0  0  0  0  0  0  0  0
   -6.9768    3.4103    0.0340 O   0  0  0  0  0  0  0  0  0  0  0  0
   -2.2786    1.4558    2.6599 C   0  0  1  0  0  0  0  0  0  0  0  0
   -3.5539    2.0661    3.2263 C   0  0  0  0  0  0  0  0  0  0  0  0
   -1.7377    0.6381    3.7092 O   0  0  0  0  0  0  0  0  0  0  0  0
    4.9783   -0.6149    2.3941 C   0  0  0  0  0  0  0  0  0  0  0  0
    5.3039    0.8794    2.3017 C   0  0  0  0  0  0  0  0  0  0  0  0
    3.8942   -0.8460    3.4500 C   0  0  0  0  0  0  0  0  0  0  0  0
    9.4763   -2.1992   -3.1064 H   0  0  0  0  0  0  0  0  0  0  0  0
   10.2997   -0.9776   -2.1224 H   0  0  0  0  0  0  0  0  0  0  0  0
    8.9605   -0.5032   -3.1658 H   0  0  0  0  0  0  0  0  0  0  0  0
    8.2190   -0.6115   -0.8081 H   0  0  0  0  0  0  0  0  0  0  0  0
    8.3561   -2.7160    0.5031 H   0  0  0  0  0  0  0  0  0  0  0  0
    9.1206   -3.5404   -0.8672 H   0  0  0  0  0  0  0  0  0  0  0  0
    9.9566   -2.2152   -0.0405 H   0  0  0  0  0  0  0  0  0  0  0  0
    7.1309   -3.0106   -2.3958 H   0  0  0  0  0  0  0  0  0  0  0  0
    5.5199   -1.5422   -3.1962 H   0  0  0  0  0  0  0  0  0  0  0  0
    6.0284   -0.2810   -2.3214 H   0  0  0  0  0  0  0  0  0  0  0  0
    6.1015   -0.3895   -0.1728 H   0  0  0  0  0  0  0  0  0  0  0  0
    4.2688   -2.2822    1.1957 H   0  0  0  0  0  0  0  0  0  0  0  0
    2.0381   -1.4848    1.3166 H   0  0  0  0  0  0  0  0  0  0  0  0
    1.3287    0.9426   -0.1562 H   0  0  0  0  0  0  0  0  0  0  0  0
    1.6086   -0.6709   -2.0143 H   0  0  0  0  0  0  0  0  0  0  0  0
   -0.0969   -0.2740   -1.8087 H   0  0  0  0  0  0  0  0  0  0  0  0
    0.3788   -2.7990   -2.5300 H   0  0  0  0  0  0  0  0  0  0  0  0
   -1.1879    1.1531   -0.2310 H   0  0  0  0  0  0  0  0  0  0  0  0
   -2.7272   -0.4216    1.6340 H   0  0  0  0  0  0  0  0  0  0  0  0
   -5.0231    0.2631    1.4767 H   0  0  0  0  0  0  0  0  0  0  0  0
   -5.5565    1.7228   -1.0813 H   0  0  0  0  0  0  0  0  0  0  0  0
   -6.4314   -0.7017   -0.9627 H   0  0  0  0  0  0  0  0  0  0  0  0
   -7.3640   -0.2646    0.4468 H   0  0  0  0  0  0  0  0  0  0  0  0
   -9.5687    0.6302    0.1742 H   0  0  0  0  0  0  0  0  0  0  0  0
  -11.3858    1.3775   -1.3206 H   0  0  0  0  0  0  0  0  0  0  0  0
  -10.8526    1.9513   -4.7593 H   0  0  0  0  0  0  0  0  0  0  0  0
   -8.6615    1.3944   -4.6491 H   0  0  0  0  0  0  0  0  0  0  0  0
   -6.8412    0.6485   -3.1787 H   0  0  0  0  0  0  0  0  0  0  0  0
   -7.3864    3.9941    0.7057 H   0  0  0  0  0  0  0  0  0  0  0  0
   -1.5595    2.2638    2.4793 H   0  0  0  0  0  0  0  0  0  0  0  0
   -3.3416    2.5771    4.1725 H   0  0  0  0  0  0  0  0  0  0  0  0
   -4.2941    1.2920    3.4548 H   0  0  0  0  0  0  0  0  0  0  0  0
   -3.9934    2.7976    2.5427 H   0  0  0  0  0  0  0  0  0  0  0  0
   -1.0092    0.1010    3.3254 H   0  0  0  0  0  0  0  0  0  0  0  0
    5.8845   -1.1185    2.7590 H   0  0  0  0  0  0  0  0  0  0  0  0
    4.4329    1.4656    1.9914 H   0  0  0  0  0  0  0  0  0  0  0  0
    5.6277    1.2608    3.2764 H   0  0  0  0  0  0  0  0  0  0  0  0
    6.1150    1.0687    1.5918 H   0  0  0  0  0  0  0  0  0  0  0  0
    3.6262   -1.9057    3.5126 H   0  0  0  0  0  0  0  0  0  0  0  0
    2.9873   -0.2718    3.2378 H   0  0  0  0  0  0  0  0  0  0  0  0
    4.2523   -0.5367    4.4382 H   0  0  0  0  0  0  0  0  0  0  0  0
  1  2  1  0
  2  3  1  0
  2  4  1  0
  4  5  1  0
  4  6  1  0
  6  7  2  0
  6  8  1  0
  8  9  1  0
  9 10  1  0
 10 11  2  0
 10 12  1  0
 12 13  1  0
 13 14  1  0
 14 15  1  0
 13 16  1  0
 16 17  2  0
 16 18  1  0
 18 19  1  0
 19 20  1  0
 20 21  2  0
 20 22  1  0
 22 23  1  0
 23 24  1  0
 24 25  1  0
 25 26  2  0
 26 27  1  0
 27 28  2  0
 28 29  1  0
 28 30  1  0
 30 31  2  0
 23 32  1  0
 32 33  2  0
 32 34  1  0
 19 35  1  0
 35 36  1  0
 35 37  1  0
  9 38  1  0
 38 39  1  0
 38 40  1  0
 31 25  1  0
  1 41  1  0
  1 42  1  0
  1 43  1  0
  2 44  1  0
  3 45  1  0
  3 46  1  0
  3 47  1  0
  4 48  1  6
  5 49  1  0
  5 50  1  0
  8 51  1  0
  9 52  1  1
 12 53  1  0
 13 54  1  6
 14 55  1  0
 14 56  1  0
 15 57  1  0
 18 58  1  0
 19 59  1  1
 22 60  1  0
 23 61  1  6
 24 62  1  0
 24 63  1  0
 26 64  1  0
 27 65  1  0
 29 66  1  0
 30 67  1  0
 31 68  1  0
 34 69  1  0
 35 70  1  6
 36 71  1  0
 36 72  1  0
 36 73  1  0
 37 74  1  0
 38 75  1  0
 39 76  1  0
 39 77  1  0
 39 78  1  0
 40 79  1  0
 40 80  1  0
 40 81  1  0
M  END
$$$$
VVCTY.sdf
     RDKit          3D

 81 81  0  0  0  0  0  0  0  0999 V2000
    5.4962   -3.1785   -2.4504 C   0  0  0  0  0  0  0  0  0  0  0  0
    5.0271   -2.0260   -3.3455 C   0  0  0  0  0  0  0  0  0  0  0  0
    6.1153   -1.6948   -4.3724 C   0  0  0  0  0  0  0  0  0  0  0  0
    4.5902   -0.7635   -2.5660 C   0  0  2  0  0  0  0  0  0  0  0  0
    5.6687   -0.1921   -1.7334 N   0  0  0  0  0  0  0  0  0  0  0  0
    3.3090   -1.0483   -1.7457 C   0  0  0  0  0  0  0  0  0  0  0  0
    2.2016   -1.1460   -2.2769 O   0  0  0  0  0  0  0  0  0  0  0  0
    3.5065   -1.2374   -0.3908 N   0  0  0  0  0  0  0  0  0  0  0  0
    2.3670   -1.2930    0.5186 C   0  0  2  0  0  0  0  0  0  0  0  0
    2.0454    0.1543    0.9358 C   0  0  0  0  0  0  0  0  0  0  0  0
    2.9223    0.9989    1.1153 O   0  0  0  0  0  0  0  0  0  0  0  0
    0.7112    0.4205    1.0990 N   0  0  0  0  0  0  0  0  0  0  0  0
    0.1979    1.7420    1.4608 C   0  0  1  0  0  0  0  0  0  0  0  0
    0.4922    2.8330    0.4157 C   0  0  0  0  0  0  0  0  0  0  0  0
   -0.1211    2.4561   -1.2613 S   0  0  0  0  0  0  0  0  0  0  0  0
   -1.3115    1.5895    1.7300 C   0  0  0  0  0  0  0  0  0  0  0  0
   -1.8972    0.5129    1.5962 O   0  0  0  0  0  0  0  0  0  0  0  0
   -1.9666    2.7294    2.1258 N   0  0  0  0  0  0  0  0  0  0  0  0
   -3.3883    2.7032    2.5039 C   0  0  2  0  0  0  0  0  0  0  0  0
   -4.2470    2.5854    1.2267 C   0  0  0  0  0  0  0  0  0  0  0  0
   -4.7387    3.5571    0.6563 O   0  0  0  0  0  0  0  0  0  0  0  0
   -4.3783    1.2947    0.7438 N   0  0  0  0  0  0  0  0  0  0  0  0
   -4.9674    1.0818   -0.5802 C   0  0  1  0  0  0  0  0  0  0  0  0
   -4.9237   -0.3930   -1.0112 C   0  0  0  0  0  0  0  0  0  0  0  0
   -3.5432   -0.9825   -1.2002 C   0  0  0  0  0  0  0  0  0  0  0  0
   -2.6219   -0.4138   -2.0919 C   0  0  0  0  0  0  0  0  0  0  0  0
   -1.3712   -1.0049   -2.2971 C   0  0  0  0  0  0  0  0  0  0  0  0
   -1.0451   -2.1724   -1.6190 C   0  0  0  0  0  0  0  0  0  0  0  0
    0.1574   -2.7875   -1.7990 O   0  0  0  0  0  0  0  0  0  0  0  0
   -1.9442   -2.7550   -0.7367 C   0  0  0  0  0  0  0  0  0  0  0  0
   -3.1898   -2.1616   -0.5261 C   0  0  0  0  0  0  0  0  0  0  0  0
   -6.4457    1.4877   -0.5695 C   0  0  0  0  0  0  0  0  0  0  0  0
   -7.2326    1.3983    0.3614 O   0  0  0  0  0  0  0  0  0  0  0  0
   -6.8710    1.9314   -1.7730 O   0  0  0  0  0  0  0  0  0  0  0  0
   -3.7392    4.0029    3.2603 C   0  0  1  0  0  0  0  0  0  0  0  0
   -5.0666    3.8922    4.0008 C   0  0  0  0  0  0  0  0  0  0  0  0
   -2.6950    4.2753    4.2166 O   0  0  0  0  0  0  0  0  0  0  0  0
    2.6007   -2.1944    1.7480 C   0  0  0  0  0  0  0  0  0  0  0  0
    3.8636   -1.8439    2.5407 C   0  0  0  0  0  0  0  0  0  0  0  0
    2.6442   -3.6683    1.3324 C   0  0  0  0  0  0  0  0  0  0  0  0
    5.7257   -4.0620   -3.0567 H   0  0  0  0  0  0  0  0  0  0  0  0
    6.4014   -2.9209   -1.8916 H   0  0  0  0  0  0  0  0  0  0  0  0
    4.7212   -3.4694   -1.7352 H   0  0  0  0  0  0  0  0  0  0  0  0
    4.1545   -2.3914   -3.9043 H   0  0  0  0  0  0  0  0  0  0  0  0
    6.3453   -2.5718   -4.9871 H   0  0  0  0  0  0  0  0  0  0  0  0
    5.7855   -0.8960   -5.0450 H   0  0  0  0  0  0  0  0  0  0  0  0
    7.0439   -1.3730   -3.8894 H   0  0  0  0  0  0  0  0  0  0  0  0
    4.3083    0.0167   -3.2849 H   0  0  0  0  0  0  0  0  0  0  0  0
    6.0236   -0.8773   -1.0720 H   0  0  0  0  0  0  0  0  0  0  0  0
    5.3284    0.6237   -1.2252 H   0  0  0  0  0  0  0  0  0  0  0  0
    4.3302   -0.7862   -0.0142 H   0  0  0  0  0  0  0  0  0  0  0  0
    1.5026   -1.6742   -0.0288 H   0  0  0  0  0  0  0  0  0  0  0  0
    0.0120   -0.2829    0.8603 H   0  0  0  0  0  0  0  0  0  0  0  0
    0.6745    2.0200    2.4091 H   0  0  0  0  0  0  0  0  0  0  0  0
    1.5704    2.9988    0.3309 H   0  0  0  0  0  0  0  0  0  0  0  0
    0.0500    3.7874    0.7191 H   0  0  0  0  0  0  0  0  0  0  0  0
    0.5838    1.3252   -1.4255 H   0  0  0  0  0  0  0  0  0  0  0  0
   -1.4284    3.4243    2.6351 H   0  0  0  0  0  0  0  0  0  0  0  0
   -3.5487    1.8296    3.1475 H   0  0  0  0  0  0  0  0  0  0  0  0
   -3.6082    0.6737    1.0045 H   0  0  0  0  0  0  0  0  0  0  0  0
   -4.4323    1.7316   -1.2827 H   0  0  0  0  0  0  0  0  0  0  0  0
   -5.4649   -0.5218   -1.9584 H   0  0  0  0  0  0  0  0  0  0  0  0
   -5.4753   -0.9932   -0.2741 H   0  0  0  0  0  0  0  0  0  0  0  0
   -2.8704    0.4875   -2.6483 H   0  0  0  0  0  0  0  0  0  0  0  0
   -0.6744   -0.5551   -2.9986 H   0  0  0  0  0  0  0  0  0  0  0  0
    0.7741   -2.1618   -2.2412 H   0  0  0  0  0  0  0  0  0  0  0  0
   -1.6809   -3.6729   -0.2195 H   0  0  0  0  0  0  0  0  0  0  0  0
   -3.8864   -2.6361    0.1615 H   0  0  0  0  0  0  0  0  0  0  0  0
   -7.8009    2.1923   -1.6057 H   0  0  0  0  0  0  0  0  0  0  0  0
   -3.7636    4.8601    2.5777 H   0  0  0  0  0  0  0  0  0  0  0  0
   -5.2789    4.8190    4.5447 H   0  0  0  0  0  0  0  0  0  0  0  0
   -5.0308    3.0925    4.7487 H   0  0  0  0  0  0  0  0  0  0  0  0
   -5.8970    3.6967    3.3164 H   0  0  0  0  0  0  0  0  0  0  0  0
   -2.9672    5.0680    4.7145 H   0  0  0  0  0  0  0  0  0  0  0  0
    1.7460   -2.0709    2.4267 H   0  0  0  0  0  0  0  0  0  0  0  0
    4.7707   -1.9850    1.9441 H   0  0  0  0  0  0  0  0  0  0  0  0
    3.9487   -2.4843    3.4257 H   0  0  0  0  0  0  0  0  0  0  0  0
    3.8405   -0.8078    2.8910 H   0  0  0  0  0  0  0  0  0  0  0  0
    2.7335   -4.3159    2.2112 H   0  0  0  0  0  0  0  0  0  0  0  0
    3.4945   -3.8758    0.6742 H   0  0  0  0  0  0  0  0  0  0  0  0
    1.7277   -3.9511    0.8038 H   0  0  0  0  0  0  0  0  0  0  0  0
  1  2  1  0
  2  3  1  0
  2  4  1  0
  4  5  1  0
  4  6  1  0
  6  7  2  0
  6  8  1  0
  8  9  1  0
  9 10  1  0
 10 11  2  0
 10 12  1  0
 12 13  1  0
 13 14  1  0
 14 15  1  0
 13 16  1  0
 16 17  2  0
 16 18  1  0
 18 19  1  0
 19 20  1  0
 20 21  2  0
 20 22  1  0
 22 23  1  0
 23 24  1  0
 24 25  1  0
 25 26  2  0
 26 27  1  0
 27 28  2  0
 28 29  1  0
 28 30  1  0
 30 31  2  0
 23 32  1  0
 32 33  2  0
 32 34  1  0
 19 35  1  0
 35 36  1  0
 35 37  1  0
  9 38  1  0
 38 39  1  0
 38 40  1  0
 31 25  1  0
  1 41  1  0
  1 42  1  0
  1 43  1  0
  2 44  1  0
  3 45  1  0
  3 46  1  0
  3 47  1  0
  4 48  1  6
  5 49  1  0
  5 50  1  0
  8 51  1  0
  9 52  1  6
 12 53  1  0
 13 54  1  1
 14 55  1  0
 14 56  1  0
 15 57  1  0
 18 58  1  0
 19 59  1  1
 22 60  1  0
 23 61  1  6
 24 62  1  0
 24 63  1  0
 26 64  1  0
 27 65  1  0
 29 66  1  0
 30 67  1  0
 31 68  1  0
 34 69  1  0
 35 70  1  6
 36 71  1  0
 36 72  1  0
 36 73  1  0
 37 74  1  0
 38 75  1  0
 39 76  1  0
 39 77  1  0
 39 78  1  0
 40 79  1  0
 40 80  1  0
 40 81  1  0
M  END
$$$$
VVCTY.sdf
     RDKit          3D

 81 81  0  0  0  0  0  0  0  0999 V2000
    9.3054    0.9334   -0.6992 C   0  0  0  0  0  0  0  0  0  0  0  0
    8.2232   -0.1511   -0.7370 C   0  0  0  0  0  0  0  0  0  0  0  0
    8.1406   -0.8410    0.6294 C   0  0  0  0  0  0  0  0  0  0  0  0
    6.8746    0.4181   -1.2320 C   0  0  2  0  0  0  0  0  0  0  0  0
    6.2422    1.3566   -0.2675 N   0  0  0  0  0  0  0  0  0  0  0  0
    5.8829   -0.7179   -1.5708 C   0  0  0  0  0  0  0  0  0  0  0  0
    5.8908   -1.3100   -2.6454 O   0  0  0  0  0  0  0  0  0  0  0  0
    5.0128   -1.0047   -0.5384 N   0  0  0  0  0  0  0  0  0  0  0  0
    3.7826   -1.7411   -0.7871 C   0  0  2  0  0  0  0  0  0  0  0  0
    2.6982   -0.7260   -1.2253 C   0  0  0  0  0  0  0  0  0  0  0  0
    2.8009    0.4870   -1.0359 O   0  0  0  0  0  0  0  0  0  0  0  0
    1.5916   -1.2904   -1.8253 N   0  0  0  0  0  0  0  0  0  0  0  0
    0.3758   -0.5040   -2.0188 C   0  0  1  0  0  0  0  0  0  0  0  0
   -0.4330   -0.9777   -3.2333 C   0  0  0  0  0  0  0  0  0  0  0  0
   -0.8417   -2.7591   -3.2058 S   0  0  0  0  0  0  0  0  0  0  0  0
   -0.4639   -0.5538   -0.7248 C   0  0  0  0  0  0  0  0  0  0  0  0
   -0.2791   -1.3879    0.1606 O   0  0  0  0  0  0  0  0  0  0  0  0
   -1.4440    0.4037   -0.6376 N   0  0  0  0  0  0  0  0  0  0  0  0
   -2.3884    0.4676    0.4777 C   0  0  2  0  0  0  0  0  0  0  0  0
   -3.5330    1.4098    0.0478 C   0  0  0  0  0  0  0  0  0  0  0  0
   -3.5211    1.9999   -1.0338 O   0  0  0  0  0  0  0  0  0  0  0  0
   -4.5659    1.5111    0.9502 N   0  0  0  0  0  0  0  0  0  0  0  0
   -5.6643    2.4564    0.7462 C   0  0  1  0  0  0  0  0  0  0  0  0
   -6.9402    2.0125    1.4718 C   0  0  0  0  0  0  0  0  0  0  0  0
   -7.5608    0.7751    0.8654 C   0  0  0  0  0  0  0  0  0  0  0  0
   -8.3793    0.8761   -0.2696 C   0  0  0  0  0  0  0  0  0  0  0  0
   -8.9421   -0.2669   -0.8422 C   0  0  0  0  0  0  0  0  0  0  0  0
   -8.6830   -1.5122   -0.2799 C   0  0  0  0  0  0  0  0  0  0  0  0
   -9.2112   -2.6536   -0.8066 O   0  0  0  0  0  0  0  0  0  0  0  0
   -7.8719   -1.6317    0.8415 C   0  0  0  0  0  0  0  0  0  0  0  0
   -7.3094   -0.4901    1.4140 C   0  0  0  0  0  0  0  0  0  0  0  0
   -5.2501    3.8205    1.2934 C   0  0  0  0  0  0  0  0  0  0  0  0
   -4.4315    4.0386    2.1741 O   0  0  0  0  0  0  0  0  0  0  0  0
   -5.9303    4.8417    0.7316 O   0  0  0  0  0  0  0  0  0  0  0  0
   -1.7381    0.9056    1.8097 C   0  0  1  0  0  0  0  0  0  0  0  0
   -1.1316    2.3049    1.7646 C   0  0  0  0  0  0  0  0  0  0  0  0
   -2.7071    0.8512    2.8703 O   0  0  0  0  0  0  0  0  0  0  0  0
    3.3282   -2.5596    0.4425 C   0  0  0  0  0  0  0  0  0  0  0  0
    3.1186   -1.7052    1.6974 C   0  0  0  0  0  0  0  0  0  0  0  0
    4.3197   -3.6884    0.7417 C   0  0  0  0  0  0  0  0  0  0  0  0
    9.0920    1.6954    0.0573 H   0  0  0  0  0  0  0  0  0  0  0  0
   10.2811    0.4950   -0.4628 H   0  0  0  0  0  0  0  0  0  0  0  0
    9.3930    1.4305   -1.6709 H   0  0  0  0  0  0  0  0  0  0  0  0
    8.5505   -0.9105   -1.4602 H   0  0  0  0  0  0  0  0  0  0  0  0
    7.4437   -1.6840    0.6090 H   0  0  0  0  0  0  0  0  0  0  0  0
    9.1199   -1.2396    0.9167 H   0  0  0  0  0  0  0  0  0  0  0  0
    7.8214   -0.1499    1.4162 H   0  0  0  0  0  0  0  0  0  0  0  0
    7.0309    0.9716   -2.1668 H   0  0  0  0  0  0  0  0  0  0  0  0
    6.8599    2.1572   -0.1380 H   0  0  0  0  0  0  0  0  0  0  0  0
    5.3957    1.7354   -0.7052 H   0  0  0  0  0  0  0  0  0  0  0  0
    4.9711   -0.2460    0.1417 H   0  0  0  0  0  0  0  0  0  0  0  0
    3.9452   -2.4199   -1.6341 H   0  0  0  0  0  0  0  0  0  0  0  0
    1.4375   -2.2834   -1.6828 H   0  0  0  0  0  0  0  0  0  0  0  0
    0.6598    0.5436   -2.1792 H   0  0  0  0  0  0  0  0  0  0  0  0
   -1.3710   -0.4202   -3.3211 H   0  0  0  0  0  0  0  0  0  0  0  0
    0.1442   -0.7990   -4.1470 H   0  0  0  0  0  0  0  0  0  0  0  0
   -1.4943   -2.7848   -4.3777 H   0  0  0  0  0  0  0  0  0  0  0  0
   -1.6083    1.0628   -1.3942 H   0  0  0  0  0  0  0  0  0  0  0  0
   -2.8280   -0.5311    0.5987 H   0  0  0  0  0  0  0  0  0  0  0  0
   -4.3093    1.2899    1.9152 H   0  0  0  0  0  0  0  0  0  0  0  0
   -5.8332    2.5604   -0.3324 H   0  0  0  0  0  0  0  0  0  0  0  0
   -7.6884    2.8163    1.4559 H   0  0  0  0  0  0  0  0  0  0  0  0
   -6.7314    1.8337    2.5355 H   0  0  0  0  0  0  0  0  0  0  0  0
   -8.5829    1.8471   -0.7161 H   0  0  0  0  0  0  0  0  0  0  0  0
   -9.5727   -0.1655   -1.7196 H   0  0  0  0  0  0  0  0  0  0  0  0
   -9.7425   -2.4176   -1.5842 H   0  0  0  0  0  0  0  0  0  0  0  0
   -7.6752   -2.6113    1.2677 H   0  0  0  0  0  0  0  0  0  0  0  0
   -6.6707   -0.5981    2.2876 H   0  0  0  0  0  0  0  0  0  0  0  0
   -5.5539    5.6422    1.1550 H   0  0  0  0  0  0  0  0  0  0  0  0
   -0.9476    0.1953    2.0759 H   0  0  0  0  0  0  0  0  0  0  0  0
   -1.8943    3.0675    1.5803 H   0  0  0  0  0  0  0  0  0  0  0  0
   -0.6769    2.5513    2.7304 H   0  0  0  0  0  0  0  0  0  0  0  0
   -0.3602    2.3853    0.9931 H   0  0  0  0  0  0  0  0  0  0  0  0
   -2.2236    1.0352    3.6979 H   0  0  0  0  0  0  0  0  0  0  0  0
    2.3649   -3.0310    0.2098 H   0  0  0  0  0  0  0  0  0  0  0  0
    4.0532   -1.2492    2.0398 H   0  0  0  0  0  0  0  0  0  0  0  0
    2.7325   -2.3205    2.5176 H   0  0  0  0  0  0  0  0  0  0  0  0
    2.3927   -0.9059    1.5193 H   0  0  0  0  0  0  0  0  0  0  0  0
    3.9528   -4.3178    1.5596 H   0  0  0  0  0  0  0  0  0  0  0  0
    5.3002   -3.2983    1.0339 H   0  0  0  0  0  0  0  0  0  0  0  0
    4.4554   -4.3293   -0.1358 H   0  0  0  0  0  0  0  0  0  0  0  0
  1  2  1  0
  2  3  1  0
  2  4  1  0
  4  5  1  0
  4  6  1  0
  6  7  2  0
  6  8  1  0
  8  9  1  0
  9 10  1  0
 10 11  2  0
 10 12  1  0
 12 13  1  0
 13 14  1  0
 14 15  1  0
 13 16  1  0
 16 17  2  0
 16 18  1  0
 18 19  1  0
 19 20  1  0
 20 21  2  0
 20 22  1  0
 22 23  1  0
 23 24  1  0
 24 25  1  0
 25 26  2  0
 26 27  1  0
 27 28  2  0
 28 29  1  0
 28 30  1  0
 30 31  2  0
 23 32  1  0
 32 33  2  0
 32 34  1  0
 19 35  1  0
 35 36  1  0
 35 37  1  0
  9 38  1  0
 38 39  1  0
 38 40  1  0
 31 25  1  0
  1 41  1  0
  1 42  1  0
  1 43  1  0
  2 44  1  0
  3 45  1  0
  3 46  1  0
  3 47  1  0
  4 48  1  6
  5 49  1  0
  5 50  1  0
  8 51  1  0
  9 52  1  6
 12 53  1  0
 13 54  1  6
 14 55  1  0
 14 56  1  0
 15 57  1  0
 18 58  1  0
 19 59  1  1
 22 60  1  0
 23 61  1  6
 24 62  1  0
 24 63  1  0
 26 64  1  0
 27 65  1  0
 29 66  1  0
 30 67  1  0
 31 68  1  0
 34 69  1  0
 35 70  1  1
 36 71  1  0
 36 72  1  0
 36 73  1  0
 37 74  1  0
 38 75  1  0
 39 76  1  0
 39 77  1  0
 39 78  1  0
 40 79  1  0
 40 80  1  0
 40 81  1  0
M  END
$$$$
VVCTY.sdf
     RDKit          3D

 81 81  0  0  0  0  0  0  0  0999 V2000
    6.1115    1.5225   -0.3226 C   0  0  0  0  0  0  0  0  0  0  0  0
    6.4423    0.3489    0.6067 C   0  0  0  0  0  0  0  0  0  0  0  0
    7.5341    0.7656    1.5982 C   0  0  0  0  0  0  0  0  0  0  0  0
    6.8345   -0.9431   -0.1502 C   0  0  2  0  0  0  0  0  0  0  0  0
    8.0332   -0.7670   -0.9982 N   0  0  0  0  0  0  0  0  0  0  0  0
    5.6649   -1.4772   -1.0155 C   0  0  0  0  0  0  0  0  0  0  0  0
    5.6756   -1.4277   -2.2447 O   0  0  0  0  0  0  0  0  0  0  0  0
    4.6238   -2.0276   -0.2959 N   0  0  0  0  0  0  0  0  0  0  0  0
    3.3486   -2.3139   -0.9560 C   0  0  2  0  0  0  0  0  0  0  0  0
    2.4916   -1.0333   -0.8403 C   0  0  0  0  0  0  0  0  0  0  0  0
    2.6351   -0.2254    0.0787 O   0  0  0  0  0  0  0  0  0  0  0  0
    1.5232   -0.8931   -1.8106 N   0  0  0  0  0  0  0  0  0  0  0  0
    0.7000    0.3139   -1.8362 C   0  0  1  0  0  0  0  0  0  0  0  0
   -0.1271    0.4345   -3.1227 C   0  0  0  0  0  0  0  0  0  0  0  0
    0.9248    0.4431   -4.6131 S   0  0  0  0  0  0  0  0  0  0  0  0
   -0.3057    0.2765   -0.6664 C   0  0  0  0  0  0  0  0  0  0  0  0
   -0.8480   -0.7568   -0.2777 O   0  0  0  0  0  0  0  0  0  0  0  0
   -0.6006    1.5153   -0.1334 N   0  0  0  0  0  0  0  0  0  0  0  0
   -1.7645    1.6835    0.7395 C   0  0  2  0  0  0  0  0  0  0  0  0
   -2.9617    2.0564   -0.1607 C   0  0  0  0  0  0  0  0  0  0  0  0
   -2.8283    2.3987   -1.3366 O   0  0  0  0  0  0  0  0  0  0  0  0
   -4.1974    1.9744    0.4514 N   0  0  0  0  0  0  0  0  0  0  0  0
   -5.4142    2.1538   -0.3492 C   0  0  1  0  0  0  0  0  0  0  0  0
   -6.6809    1.7335    0.4126 C   0  0  0  0  0  0  0  0  0  0  0  0
   -6.6601    0.2925    0.8719 C   0  0  0  0  0  0  0  0  0  0  0  0
   -6.6777   -0.0120    2.2410 C   0  0  0  0  0  0  0  0  0  0  0  0
   -6.6379   -1.3392    2.6696 C   0  0  0  0  0  0  0  0  0  0  0  0
   -6.5844   -2.3643    1.7341 C   0  0  0  0  0  0  0  0  0  0  0  0
   -6.5423   -3.6451    2.1985 O   0  0  0  0  0  0  0  0  0  0  0  0
   -6.5768   -2.0854    0.3721 C   0  0  0  0  0  0  0  0  0  0  0  0
   -6.6186   -0.7570   -0.0581 C   0  0  0  0  0  0  0  0  0  0  0  0
   -5.5799    3.6266   -0.7278 C   0  0  0  0  0  0  0  0  0  0  0  0
   -5.2695    4.5983   -0.0562 O   0  0  0  0  0  0  0  0  0  0  0  0
   -6.1984    3.7925   -1.9166 O   0  0  0  0  0  0  0  0  0  0  0  0
   -1.5169    2.7659    1.8083 C   0  0  1  0  0  0  0  0  0  0  0  0
   -0.8176    2.1856    3.0348 C   0  0  0  0  0  0  0  0  0  0  0  0
   -0.6997    3.8217    1.2847 O   0  0  0  0  0  0  0  0  0  0  0  0
    2.6741   -3.5596   -0.3385 C   0  0  0  0  0  0  0  0  0  0  0  0
    2.1893   -3.3480    1.0995 C   0  0  0  0  0  0  0  0  0  0  0  0
    1.5218   -4.0778   -1.2035 C   0  0  0  0  0  0  0  0  0  0  0  0
    5.3087    1.2639   -1.0200 H   0  0  0  0  0  0  0  0  0  0  0  0
    5.7720    2.3862    0.2600 H   0  0  0  0  0  0  0  0  0  0  0  0
    6.9827    1.8402   -0.9045 H   0  0  0  0  0  0  0  0  0  0  0  0
    5.5386    0.1445    1.1948 H   0  0  0  0  0  0  0  0  0  0  0  0
    7.7639   -0.0522    2.2894 H   0  0  0  0  0  0  0  0  0  0  0  0
    7.2047    1.6225    2.1960 H   0  0  0  0  0  0  0  0  0  0  0  0
    8.4594    1.0518    1.0875 H   0  0  0  0  0  0  0  0  0  0  0  0
    7.0706   -1.7261    0.5819 H   0  0  0  0  0  0  0  0  0  0  0  0
    7.7643   -0.1673   -1.7837 H   0  0  0  0  0  0  0  0  0  0  0  0
    8.2280   -1.6631   -1.4502 H   0  0  0  0  0  0  0  0  0  0  0  0
    4.5415   -1.7236    0.6677 H   0  0  0  0  0  0  0  0  0  0  0  0
    3.5453   -2.5004   -2.0186 H   0  0  0  0  0  0  0  0  0  0  0  0
    1.7063   -1.3374   -2.7037 H   0  0  0  0  0  0  0  0  0  0  0  0
    1.3611    1.1818   -1.7171 H   0  0  0  0  0  0  0  0  0  0  0  0
   -0.8273   -0.4035   -3.2157 H   0  0  0  0  0  0  0  0  0  0  0  0
   -0.7187    1.3561   -3.1166 H   0  0  0  0  0  0  0  0  0  0  0  0
   -0.0673    0.6291   -5.4973 H   0  0  0  0  0  0  0  0  0  0  0  0
   -0.4077    2.3258   -0.7135 H   0  0  0  0  0  0  0  0  0  0  0  0
   -2.0165    0.7283    1.2162 H   0  0  0  0  0  0  0  0  0  0  0  0
   -4.2670    1.3723    1.2635 H   0  0  0  0  0  0  0  0  0  0  0  0
   -5.2886    1.5692   -1.2688 H   0  0  0  0  0  0  0  0  0  0  0  0
   -7.5681    1.8811   -0.2175 H   0  0  0  0  0  0  0  0  0  0  0  0
   -6.8224    2.3918    1.2807 H   0  0  0  0  0  0  0  0  0  0  0  0
   -6.7253    0.7788    2.9868 H   0  0  0  0  0  0  0  0  0  0  0  0
   -6.6513   -1.5739    3.7304 H   0  0  0  0  0  0  0  0  0  0  0  0
   -6.4939   -4.2494    1.4396 H   0  0  0  0  0  0  0  0  0  0  0  0
   -6.5404   -2.8815   -0.3650 H   0  0  0  0  0  0  0  0  0  0  0  0
   -6.6183   -0.5502   -1.1264 H   0  0  0  0  0  0  0  0  0  0  0  0
   -6.1967    4.7653   -2.0434 H   0  0  0  0  0  0  0  0  0  0  0  0
   -2.4597    3.2198    2.1318 H   0  0  0  0  0  0  0  0  0  0  0  0
   -0.6171    2.9746    3.7677 H   0  0  0  0  0  0  0  0  0  0  0  0
    0.1515    1.7490    2.7691 H   0  0  0  0  0  0  0  0  0  0  0  0
   -1.4296    1.4141    3.5117 H   0  0  0  0  0  0  0  0  0  0  0  0
    0.1986    3.4586    1.1774 H   0  0  0  0  0  0  0  0  0  0  0  0
    3.4297   -4.3570   -0.3087 H   0  0  0  0  0  0  0  0  0  0  0  0
    1.3873   -2.6046    1.1522 H   0  0  0  0  0  0  0  0  0  0  0  0
    3.0043   -3.0201    1.7520 H   0  0  0  0  0  0  0  0  0  0  0  0
    1.7975   -4.2844    1.5119 H   0  0  0  0  0  0  0  0  0  0  0  0
    1.8431   -4.2211   -2.2403 H   0  0  0  0  0  0  0  0  0  0  0  0
    1.1689   -5.0454   -0.8298 H   0  0  0  0  0  0  0  0  0  0  0  0
    0.6676   -3.3940   -1.1986 H   0  0  0  0  0  0  0  0  0  0  0  0
  1  2  1  0
  2  3  1  0
  2  4  1  0
  4  5  1  0
  4  6  1  0
  6  7  2  0
  6  8  1  0
  8  9  1  0
  9 10  1  0
 10 11  2  0
 10 12  1  0
 12 13  1  0
 13 14  1  0
 14 15  1  0
 13 16  1  0
 16 17  2  0
 16 18  1  0
 18 19  1  0
 19 20  1  0
 20 21  2  0
 20 22  1  0
 22 23  1  0
 23 24  1  0
 24 25  1  0
 25 26  2  0
 26 27  1  0
 27 28  2  0
 28 29  1  0
 28 30  1  0
 30 31  2  0
 23 32  1  0
 32 33  2  0
 32 34  1  0
 19 35  1  0
 35 36  1  0
 35 37  1  0
  9 38  1  0
 38 39  1  0
 38 40  1  0
 31 25  1  0
  1 41  1  0
  1 42  1  0
  1 43  1  0
  2 44  1  0
  3 45  1  0
  3 46  1  0
  3 47  1  0
  4 48  1  1
  5 49  1  0
  5 50  1  0
  8 51  1  0
  9 52  1  6
 12 53  1  0
 13 54  1  1
 14 55  1  0
 14 56  1  0
 15 57  1  0
 18 58  1  0
 19 59  1  1
 22 60  1  0
 23 61  1  6
 24 62  1  0
 24 63  1  0
 26 64  1  0
 27 65  1  0
 29 66  1  0
 30 67  1  0
 31 68  1  0
 34 69  1  0
 35 70  1  1
 36 71  1  0
 36 72  1  0
 36 73  1  0
 37 74  1  0
 38 75  1  0
 39 76  1  0
 39 77  1  0
 39 78  1  0
 40 79  1  0
 40 80  1  0
 40 81  1  0
M  END
$$$$
VVCTY.sdf
     RDKit          3D

 81 81  0  0  0  0  0  0  0  0999 V2000
    7.7237   -3.1584   -1.2046 C   0  0  0  0  0  0  0  0  0  0  0  0
    7.4122   -1.8154   -1.8776 C   0  0  0  0  0  0  0  0  0  0  0  0
    8.5062   -1.5129   -2.9103 C   0  0  0  0  0  0  0  0  0  0  0  0
    6.0063   -1.8310   -2.5243 C   0  0  2  0  0  0  0  0  0  0  0  0
    5.6982   -0.5486   -3.1955 N   0  0  0  0  0  0  0  0  0  0  0  0
    4.8655   -2.1301   -1.5213 C   0  0  0  0  0  0  0  0  0  0  0  0
    3.9775   -2.9443   -1.7622 O   0  0  0  0  0  0  0  0  0  0  0  0
    4.8823   -1.3514   -0.3793 N   0  0  0  0  0  0  0  0  0  0  0  0
    3.6970   -1.2780    0.4682 C   0  0  2  0  0  0  0  0  0  0  0  0
    2.8197   -0.1268   -0.0715 C   0  0  0  0  0  0  0  0  0  0  0  0
    3.2636    0.7604   -0.8013 O   0  0  0  0  0  0  0  0  0  0  0  0
    1.5157   -0.1470    0.3518 N   0  0  0  0  0  0  0  0  0  0  0  0
    0.5473    0.8776   -0.0357 C   0  0  1  0  0  0  0  0  0  0  0  0
    0.1102    0.7704   -1.5053 C   0  0  0  0  0  0  0  0  0  0  0  0
   -0.6536   -0.8312   -1.9376 S   0  0  0  0  0  0  0  0  0  0  0  0
   -0.6426    0.7964    0.9378 C   0  0  0  0  0  0  0  0  0  0  0  0
   -0.7234   -0.0688    1.8135 O   0  0  0  0  0  0  0  0  0  0  0  0
   -1.6017    1.7650    0.7977 N   0  0  0  0  0  0  0  0  0  0  0  0
   -2.8145    1.7933    1.6231 C   0  0  2  0  0  0  0  0  0  0  0  0
   -3.8516    2.5753    0.8037 C   0  0  0  0  0  0  0  0  0  0  0  0
   -3.5249    3.4690    0.0224 O   0  0  0  0  0  0  0  0  0  0  0  0
   -5.1575    2.2103    1.0077 N   0  0  0  0  0  0  0  0  0  0  0  0
   -6.2538    2.7683    0.2108 C   0  0  1  0  0  0  0  0  0  0  0  0
   -6.2917    2.2310   -1.2313 C   0  0  0  0  0  0  0  0  0  0  0  0
   -6.2843    0.7205   -1.3369 C   0  0  0  0  0  0  0  0  0  0  0  0
   -7.4778   -0.0110   -1.2531 C   0  0  0  0  0  0  0  0  0  0  0  0
   -7.4609   -1.4064   -1.3199 C   0  0  0  0  0  0  0  0  0  0  0  0
   -6.2489   -2.0707   -1.4746 C   0  0  0  0  0  0  0  0  0  0  0  0
   -6.1876   -3.4307   -1.5417 O   0  0  0  0  0  0  0  0  0  0  0  0
   -5.0574   -1.3635   -1.5688 C   0  0  0  0  0  0  0  0  0  0  0  0
   -5.0741    0.0299   -1.5029 C   0  0  0  0  0  0  0  0  0  0  0  0
   -7.5654    2.5035    0.9446 C   0  0  0  0  0  0  0  0  0  0  0  0
   -7.7139    1.7806    1.9195 O   0  0  0  0  0  0  0  0  0  0  0  0
   -8.6149    3.1720    0.4266 O   0  0  0  0  0  0  0  0  0  0  0  0
   -2.5679    2.4598    2.9960 C   0  0  1  0  0  0  0  0  0  0  0  0
   -3.7549    2.3270    3.9435 C   0  0  0  0  0  0  0  0  0  0  0  0
   -1.4363    1.8926    3.6735 O   0  0  0  0  0  0  0  0  0  0  0  0
    4.0400   -1.0769    1.9602 C   0  0  0  0  0  0  0  0  0  0  0  0
    4.8910    0.1687    2.2283 C   0  0  0  0  0  0  0  0  0  0  0  0
    4.7401   -2.3158    2.5270 C   0  0  0  0  0  0  0  0  0  0  0  0
    7.6766   -3.9825   -1.9245 H   0  0  0  0  0  0  0  0  0  0  0  0
    8.7283   -3.1494   -0.7678 H   0  0  0  0  0  0  0  0  0  0  0  0
    7.0201   -3.3743   -0.3947 H   0  0  0  0  0  0  0  0  0  0  0  0
    7.4630   -1.0364   -1.1063 H   0  0  0  0  0  0  0  0  0  0  0  0
    8.3828   -0.5151   -3.3431 H   0  0  0  0  0  0  0  0  0  0  0  0
    8.4937   -2.2433   -3.7264 H   0  0  0  0  0  0  0  0  0  0  0  0
    9.4977   -1.5439   -2.4453 H   0  0  0  0  0  0  0  0  0  0  0  0
    5.9793   -2.6222   -3.2844 H   0  0  0  0  0  0  0  0  0  0  0  0
    4.8128   -0.6599   -3.6953 H   0  0  0  0  0  0  0  0  0  0  0  0
    5.5127    0.1784   -2.5042 H   0  0  0  0  0  0  0  0  0  0  0  0
    5.4088   -0.4893   -0.4542 H   0  0  0  0  0  0  0  0  0  0  0  0
    3.1195   -2.2042    0.3552 H   0  0  0  0  0  0  0  0  0  0  0  0
    1.1762   -0.8847    0.9646 H   0  0  0  0  0  0  0  0  0  0  0  0
    1.0275    1.8520    0.1203 H   0  0  0  0  0  0  0  0  0  0  0  0
   -0.6147    1.5535   -1.7491 H   0  0  0  0  0  0  0  0  0  0  0  0
    0.9694    0.9081   -2.1694 H   0  0  0  0  0  0  0  0  0  0  0  0
    0.4504   -1.5750   -1.7588 H   0  0  0  0  0  0  0  0  0  0  0  0
   -1.4699    2.5521    0.1679 H   0  0  0  0  0  0  0  0  0  0  0  0
   -3.1450    0.7557    1.7525 H   0  0  0  0  0  0  0  0  0  0  0  0
   -5.3723    1.3627    1.5270 H   0  0  0  0  0  0  0  0  0  0  0  0
   -6.1120    3.8560    0.1884 H   0  0  0  0  0  0  0  0  0  0  0  0
   -7.1737    2.6166   -1.7588 H   0  0  0  0  0  0  0  0  0  0  0  0
   -5.4290    2.6211   -1.7872 H   0  0  0  0  0  0  0  0  0  0  0  0
   -8.4322    0.4982   -1.1389 H   0  0  0  0  0  0  0  0  0  0  0  0
   -8.3961   -1.9529   -1.2509 H   0  0  0  0  0  0  0  0  0  0  0  0
   -7.0891   -3.7865   -1.4850 H   0  0  0  0  0  0  0  0  0  0  0  0
   -4.1176   -1.8940   -1.6982 H   0  0  0  0  0  0  0  0  0  0  0  0
   -4.1333    0.5701   -1.5875 H   0  0  0  0  0  0  0  0  0  0  0  0
   -9.3666    2.9366    1.0116 H   0  0  0  0  0  0  0  0  0  0  0  0
   -2.3437    3.5240    2.8582 H   0  0  0  0  0  0  0  0  0  0  0  0
   -4.6316    2.8694    3.5804 H   0  0  0  0  0  0  0  0  0  0  0  0
   -4.0244    1.2748    4.0863 H   0  0  0  0  0  0  0  0  0  0  0  0
   -3.4992    2.7218    4.9332 H   0  0  0  0  0  0  0  0  0  0  0  0
   -1.2810    0.9923    3.3178 H   0  0  0  0  0  0  0  0  0  0  0  0
    3.1007   -0.9519    2.5149 H   0  0  0  0  0  0  0  0  0  0  0  0
    5.0520    0.2966    3.3044 H   0  0  0  0  0  0  0  0  0  0  0  0
    4.3979    1.0744    1.8622 H   0  0  0  0  0  0  0  0  0  0  0  0
    5.8754    0.0986    1.7541 H   0  0  0  0  0  0  0  0  0  0  0  0
    4.9094   -2.2055    3.6035 H   0  0  0  0  0  0  0  0  0  0  0  0
    4.1279   -3.2113    2.3769 H   0  0  0  0  0  0  0  0  0  0  0  0
    5.7117   -2.4838    2.0504 H   0  0  0  0  0  0  0  0  0  0  0  0
  1  2  1  0
  2  3  1  0
  2  4  1  0
  4  5  1  0
  4  6  1  0
  6  7  2  0
  6  8  1  0
  8  9  1  0
  9 10  1  0
 10 11  2  0
 10 12  1  0
 12 13  1  0
 13 14  1  0
 14 15  1  0
 13 16  1  0
 16 17  2  0
 16 18  1  0
 18 19  1  0
 19 20  1  0
 20 21  2  0
 20 22  1  0
 22 23  1  0
 23 24  1  0
 24 25  1  0
 25 26  2  0
 26 27  1  0
 27 28  2  0
 28 29  1  0
 28 30  1  0
 30 31  2  0
 23 32  1  0
 32 33  2  0
 32 34  1  0
 19 35  1  0
 35 36  1  0
 35 37  1  0
  9 38  1  0
 38 39  1  0
 38 40  1  0
 31 25  1  0
  1 41  1  0
  1 42  1  0
  1 43  1  0
  2 44  1  0
  3 45  1  0
  3 46  1  0
  3 47  1  0
  4 48  1  6
  5 49  1  0
  5 50  1  0
  8 51  1  0
  9 52  1  1
 12 53  1  0
 13 54  1  6
 14 55  1  0
 14 56  1  0
 15 57  1  0
 18 58  1  0
 19 59  1  1
 22 60  1  0
 23 61  1  6
 24 62  1  0
 24 63  1  0
 26 64  1  0
 27 65  1  0
 29 66  1  0
 30 67  1  0
 31 68  1  0
 34 69  1  0
 35 70  1  6
 36 71  1  0
 36 72  1  0
 36 73  1  0
 37 74  1  0
 38 75  1  0
 39 76  1  0
 39 77  1  0
 39 78  1  0
 40 79  1  0
 40 80  1  0
 40 81  1  0
M  END
$$$$
VVCTY.sdf
     RDKit          3D

 81 81  0  0  0  0  0  0  0  0999 V2000
    9.1577    0.1993   -0.6300 C   0  0  0  0  0  0  0  0  0  0  0  0
    8.0033    0.6075   -1.5525 C   0  0  0  0  0  0  0  0  0  0  0  0
    7.0957    1.6034   -0.8232 C   0  0  0  0  0  0  0  0  0  0  0  0
    7.2712   -0.6317   -2.1189 C   0  0  2  0  0  0  0  0  0  0  0  0
    6.3448   -0.2518   -3.2119 N   0  0  0  0  0  0  0  0  0  0  0  0
    6.5436   -1.4562   -1.0277 C   0  0  0  0  0  0  0  0  0  0  0  0
    7.1229   -2.3011   -0.3491 O   0  0  0  0  0  0  0  0  0  0  0  0
    5.2172   -1.1509   -0.8425 N   0  0  0  0  0  0  0  0  0  0  0  0
    4.3713   -1.8403    0.1310 C   0  0  2  0  0  0  0  0  0  0  0  0
    2.9427   -1.8136   -0.4532 C   0  0  0  0  0  0  0  0  0  0  0  0
    2.5900   -0.9659   -1.2762 O   0  0  0  0  0  0  0  0  0  0  0  0
    2.0937   -2.7939    0.0036 N   0  0  0  0  0  0  0  0  0  0  0  0
    0.6698   -2.7491   -0.3187 C   0  0  1  0  0  0  0  0  0  0  0  0
    0.0067   -4.1311   -0.2456 C   0  0  0  0  0  0  0  0  0  0  0  0
    0.3260   -5.0296    1.3175 S   0  0  0  0  0  0  0  0  0  0  0  0
   -0.0449   -1.7693    0.6312 C   0  0  0  0  0  0  0  0  0  0  0  0
    0.3374   -1.5589    1.7808 O   0  0  0  0  0  0  0  0  0  0  0  0
   -1.1759   -1.1896    0.1154 N   0  0  0  0  0  0  0  0  0  0  0  0
   -2.0029   -0.2527    0.8760 C   0  0  2  0  0  0  0  0  0  0  0  0
   -3.3318   -0.0892    0.1075 C   0  0  0  0  0  0  0  0  0  0  0  0
   -3.5289   -0.6399   -0.9761 O   0  0  0  0  0  0  0  0  0  0  0  0
   -4.2731    0.6920    0.7393 N   0  0  0  0  0  0  0  0  0  0  0  0
   -5.5058    1.0966    0.0540 C   0  0  1  0  0  0  0  0  0  0  0  0
   -6.6083    1.3805    1.0813 C   0  0  0  0  0  0  0  0  0  0  0  0
   -7.9635    1.6379    0.4670 C   0  0  0  0  0  0  0  0  0  0  0  0
   -8.4948    2.9351    0.4370 C   0  0  0  0  0  0  0  0  0  0  0  0
   -9.7413    3.1734   -0.1434 C   0  0  0  0  0  0  0  0  0  0  0  0
  -10.4582    2.1189   -0.6943 C   0  0  0  0  0  0  0  0  0  0  0  0
  -11.6705    2.3979   -1.2521 O   0  0  0  0  0  0  0  0  0  0  0  0
   -9.9501    0.8246   -0.6737 C   0  0  0  0  0  0  0  0  0  0  0  0
   -8.7028    0.5852   -0.0924 C   0  0  0  0  0  0  0  0  0  0  0  0
   -5.2006    2.3624   -0.7459 C   0  0  0  0  0  0  0  0  0  0  0  0
   -4.5009    3.2958   -0.3780 O   0  0  0  0  0  0  0  0  0  0  0  0
   -5.8001    2.3917   -1.9519 O   0  0  0  0  0  0  0  0  0  0  0  0
   -1.3107    1.1053    1.1348 C   0  0  1  0  0  0  0  0  0  0  0  0
   -0.9807    1.8783   -0.1388 C   0  0  0  0  0  0  0  0  0  0  0  0
   -2.1426    1.9210    1.9752 O   0  0  0  0  0  0  0  0  0  0  0  0
    4.5021   -1.1889    1.5269 C   0  0  0  0  0  0  0  0  0  0  0  0
    3.9738   -2.0857    2.6478 C   0  0  0  0  0  0  0  0  0  0  0  0
    3.8486    0.1945    1.6091 C   0  0  0  0  0  0  0  0  0  0  0  0
    9.8274   -0.5074   -1.1310 H   0  0  0  0  0  0  0  0  0  0  0  0
    9.7519    1.0753   -0.3479 H   0  0  0  0  0  0  0  0  0  0  0  0
    8.7958   -0.2656    0.2926 H   0  0  0  0  0  0  0  0  0  0  0  0
    8.4539    1.1403   -2.4017 H   0  0  0  0  0  0  0  0  0  0  0  0
    6.6612    1.1656    0.0807 H   0  0  0  0  0  0  0  0  0  0  0  0
    6.2808    1.9559   -1.4615 H   0  0  0  0  0  0  0  0  0  0  0  0
    7.6691    2.4851   -0.5153 H   0  0  0  0  0  0  0  0  0  0  0  0
    8.0071   -1.3085   -2.5710 H   0  0  0  0  0  0  0  0  0  0  0  0
    5.7077    0.4834   -2.9214 H   0  0  0  0  0  0  0  0  0  0  0  0
    5.7881   -1.0634   -3.4795 H   0  0  0  0  0  0  0  0  0  0  0  0
    4.7554   -0.4975   -1.4642 H   0  0  0  0  0  0  0  0  0  0  0  0
    4.7038   -2.8851    0.1721 H   0  0  0  0  0  0  0  0  0  0  0  0
    2.3405   -3.2910    0.8527 H   0  0  0  0  0  0  0  0  0  0  0  0
    0.5616   -2.3628   -1.3400 H   0  0  0  0  0  0  0  0  0  0  0  0
   -1.0778   -4.0507   -0.3730 H   0  0  0  0  0  0  0  0  0  0  0  0
    0.3910   -4.7623   -1.0539 H   0  0  0  0  0  0  0  0  0  0  0  0
   -0.1761   -4.0979    2.1465 H   0  0  0  0  0  0  0  0  0  0  0  0
   -1.4786   -1.3770   -0.8378 H   0  0  0  0  0  0  0  0  0  0  0  0
   -2.2451   -0.7267    1.8360 H   0  0  0  0  0  0  0  0  0  0  0  0
   -3.8816    1.3613    1.4084 H   0  0  0  0  0  0  0  0  0  0  0  0
   -5.7952    0.2976   -0.6381 H   0  0  0  0  0  0  0  0  0  0  0  0
   -6.3235    2.2314    1.7152 H   0  0  0  0  0  0  0  0  0  0  0  0
   -6.7027    0.5283    1.7681 H   0  0  0  0  0  0  0  0  0  0  0  0
   -7.9445    3.7711    0.8634 H   0  0  0  0  0  0  0  0  0  0  0  0
  -10.1518    4.1789   -0.1658 H   0  0  0  0  0  0  0  0  0  0  0  0
  -12.0507    1.5719   -1.5932 H   0  0  0  0  0  0  0  0  0  0  0  0
  -10.5039   -0.0048   -1.1018 H   0  0  0  0  0  0  0  0  0  0  0  0
   -8.3113   -0.4301   -0.0797 H   0  0  0  0  0  0  0  0  0  0  0  0
   -5.5348    3.2487   -2.3445 H   0  0  0  0  0  0  0  0  0  0  0  0
   -0.3801    0.9370    1.6881 H   0  0  0  0  0  0  0  0  0  0  0  0
   -1.8864    2.1515   -0.6891 H   0  0  0  0  0  0  0  0  0  0  0  0
   -0.4768    2.8188    0.1100 H   0  0  0  0  0  0  0  0  0  0  0  0
   -0.3255    1.3043   -0.8005 H   0  0  0  0  0  0  0  0  0  0  0  0
   -1.6393    2.7354    2.1659 H   0  0  0  0  0  0  0  0  0  0  0  0
    5.5734   -1.0470    1.7261 H   0  0  0  0  0  0  0  0  0  0  0  0
    4.3950   -3.0936    2.5768 H   0  0  0  0  0  0  0  0  0  0  0  0
    4.2553   -1.6778    3.6251 H   0  0  0  0  0  0  0  0  0  0  0  0
    2.8837   -2.1633    2.6325 H   0  0  0  0  0  0  0  0  0  0  0  0
    4.2300    0.8615    0.8297 H   0  0  0  0  0  0  0  0  0  0  0  0
    4.0625    0.6615    2.5767 H   0  0  0  0  0  0  0  0  0  0  0  0
    2.7603    0.1360    1.5050 H   0  0  0  0  0  0  0  0  0  0  0  0
  1  2  1  0
  2  3  1  0
  2  4  1  0
  4  5  1  0
  4  6  1  0
  6  7  2  0
  6  8  1  0
  8  9  1  0
  9 10  1  0
 10 11  2  0
 10 12  1  0
 12 13  1  0
 13 14  1  0
 14 15  1  0
 13 16  1  0
 16 17  2  0
 16 18  1  0
 18 19  1  0
 19 20  1  0
 20 21  2  0
 20 22  1  0
 22 23  1  0
 23 24  1  0
 24 25  1  0
 25 26  2  0
 26 27  1  0
 27 28  2  0
 28 29  1  0
 28 30  1  0
 30 31  2  0
 23 32  1  0
 32 33  2  0
 32 34  1  0
 19 35  1  0
 35 36  1  0
 35 37  1  0
  9 38  1  0
 38 39  1  0
 38 40  1  0
 31 25  1  0
  1 41  1  0
  1 42  1  0
  1 43  1  0
  2 44  1  0
  3 45  1  0
  3 46  1  0
  3 47  1  0
  4 48  1  6
  5 49  1  0
  5 50  1  0
  8 51  1  0
  9 52  1  1
 12 53  1  0
 13 54  1  6
 14 55  1  0
 14 56  1  0
 15 57  1  0
 18 58  1  0
 19 59  1  1
 22 60  1  0
 23 61  1  6
 24 62  1  0
 24 63  1  0
 26 64  1  0
 27 65  1  0
 29 66  1  0
 30 67  1  0
 31 68  1  0
 34 69  1  0
 35 70  1  1
 36 71  1  0
 36 72  1  0
 36 73  1  0
 37 74  1  0
 38 75  1  0
 39 76  1  0
 39 77  1  0
 39 78  1  0
 40 79  1  0
 40 80  1  0
 40 81  1  0
M  END
$$$$
VVCTY.sdf
     RDKit          3D

 81 81  0  0  0  0  0  0  0  0999 V2000
    7.5685   -2.6745    0.6783 C   0  0  0  0  0  0  0  0  0  0  0  0
    7.2706   -2.8724   -0.8120 C   0  0  0  0  0  0  0  0  0  0  0  0
    8.5825   -2.8582   -1.6040 C   0  0  0  0  0  0  0  0  0  0  0  0
    6.2553   -1.8579   -1.3853 C   0  0  2  0  0  0  0  0  0  0  0  0
    6.6512   -0.4414   -1.1720 N   0  0  0  0  0  0  0  0  0  0  0  0
    4.8449   -2.0963   -0.7995 C   0  0  0  0  0  0  0  0  0  0  0  0
    4.0819   -2.9564   -1.2286 O   0  0  0  0  0  0  0  0  0  0  0  0
    4.5422   -1.2627    0.2569 N   0  0  0  0  0  0  0  0  0  0  0  0
    3.1701   -1.1144    0.7259 C   0  0  2  0  0  0  0  0  0  0  0  0
    2.5175   -0.0873   -0.2292 C   0  0  0  0  0  0  0  0  0  0  0  0
    3.0934    0.9366   -0.5984 O   0  0  0  0  0  0  0  0  0  0  0  0
    1.2520   -0.4208   -0.6563 N   0  0  0  0  0  0  0  0  0  0  0  0
    0.4550    0.4849   -1.4786 C   0  0  1  0  0  0  0  0  0  0  0  0
   -0.3648   -0.2705   -2.5333 C   0  0  0  0  0  0  0  0  0  0  0  0
   -1.4593   -1.5592   -1.8388 S   0  0  0  0  0  0  0  0  0  0  0  0
   -0.4502    1.3525   -0.5833 C   0  0  0  0  0  0  0  0  0  0  0  0
   -0.7664    1.0410    0.5656 O   0  0  0  0  0  0  0  0  0  0  0  0
   -0.9407    2.4891   -1.1792 N   0  0  0  0  0  0  0  0  0  0  0  0
   -1.7918    3.4509   -0.4715 C   0  0  2  0  0  0  0  0  0  0  0  0
   -3.2620    2.9774   -0.5110 C   0  0  0  0  0  0  0  0  0  0  0  0
   -4.1734    3.6661   -0.9646 O   0  0  0  0  0  0  0  0  0  0  0  0
   -3.4742    1.7347    0.0468 N   0  0  0  0  0  0  0  0  0  0  0  0
   -4.8244    1.2319    0.3180 C   0  0  1  0  0  0  0  0  0  0  0  0
   -4.8265   -0.3011    0.3216 C   0  0  0  0  0  0  0  0  0  0  0  0
   -6.2004   -0.9147    0.4500 C   0  0  0  0  0  0  0  0  0  0  0  0
   -7.1045   -0.8636   -0.6205 C   0  0  0  0  0  0  0  0  0  0  0  0
   -8.3764   -1.4240   -0.4970 C   0  0  0  0  0  0  0  0  0  0  0  0
   -8.7470   -2.0370    0.6932 C   0  0  0  0  0  0  0  0  0  0  0  0
   -9.9985   -2.5726    0.7695 O   0  0  0  0  0  0  0  0  0  0  0  0
   -7.8652   -2.0994    1.7668 C   0  0  0  0  0  0  0  0  0  0  0  0
   -6.5921   -1.5378    1.6441 C   0  0  0  0  0  0  0  0  0  0  0  0
   -5.2465    1.7620    1.6874 C   0  0  0  0  0  0  0  0  0  0  0  0
   -4.5310    1.8696    2.6733 O   0  0  0  0  0  0  0  0  0  0  0  0
   -6.5449    2.1181    1.7474 O   0  0  0  0  0  0  0  0  0  0  0  0
   -1.6664    4.8536   -1.1013 C   0  0  1  0  0  0  0  0  0  0  0  0
   -0.2908    5.4645   -0.8584 C   0  0  0  0  0  0  0  0  0  0  0  0
   -1.8569    4.7682   -2.5225 O   0  0  0  0  0  0  0  0  0  0  0  0
    3.1359   -0.6281    2.1902 C   0  0  0  0  0  0  0  0  0  0  0  0
    3.8529   -1.6186    3.1164 C   0  0  0  0  0  0  0  0  0  0  0  0
    1.7048   -0.4238    2.6938 C   0  0  0  0  0  0  0  0  0  0  0  0
    8.0064   -1.6916    0.8796 H   0  0  0  0  0  0  0  0  0  0  0  0
    8.2781   -3.4313    1.0309 H   0  0  0  0  0  0  0  0  0  0  0  0
    6.6621   -2.7774    1.2819 H   0  0  0  0  0  0  0  0  0  0  0  0
    6.8375   -3.8761   -0.9215 H   0  0  0  0  0  0  0  0  0  0  0  0
    9.1218   -1.9133   -1.4824 H   0  0  0  0  0  0  0  0  0  0  0  0
    9.2441   -3.6634   -1.2663 H   0  0  0  0  0  0  0  0  0  0  0  0
    8.3948   -3.0105   -2.6720 H   0  0  0  0  0  0  0  0  0  0  0  0
    6.1621   -2.0076   -2.4686 H   0  0  0  0  0  0  0  0  0  0  0  0
    5.9888    0.1547   -1.6765 H   0  0  0  0  0  0  0  0  0  0  0  0
    7.5533   -0.2813   -1.6194 H   0  0  0  0  0  0  0  0  0  0  0  0
    5.1479   -0.4431    0.2969 H   0  0  0  0  0  0  0  0  0  0  0  0
    2.6574   -2.0791    0.6292 H   0  0  0  0  0  0  0  0  0  0  0  0
    0.7367   -1.1271   -0.1408 H   0  0  0  0  0  0  0  0  0  0  0  0
    1.1360    1.1679   -2.0017 H   0  0  0  0  0  0  0  0  0  0  0  0
    0.3141   -0.7716   -3.2319 H   0  0  0  0  0  0  0  0  0  0  0  0
   -0.9868    0.4189   -3.1132 H   0  0  0  0  0  0  0  0  0  0  0  0
   -1.8701   -2.0612   -3.0134 H   0  0  0  0  0  0  0  0  0  0  0  0
   -0.7316    2.7139   -2.1468 H   0  0  0  0  0  0  0  0  0  0  0  0
   -1.4953    3.4898    0.5843 H   0  0  0  0  0  0  0  0  0  0  0  0
   -2.7115    1.3606    0.6167 H   0  0  0  0  0  0  0  0  0  0  0  0
   -5.5018    1.6352   -0.4433 H   0  0  0  0  0  0  0  0  0  0  0  0
   -4.1780   -0.6771    1.1247 H   0  0  0  0  0  0  0  0  0  0  0  0
   -4.3786   -0.6714   -0.6098 H   0  0  0  0  0  0  0  0  0  0  0  0
   -6.8261   -0.3884   -1.5585 H   0  0  0  0  0  0  0  0  0  0  0  0
   -9.0758   -1.3826   -1.3271 H   0  0  0  0  0  0  0  0  0  0  0  0
  -10.1112   -2.9694    1.6485 H   0  0  0  0  0  0  0  0  0  0  0  0
   -8.1465   -2.5774    2.6996 H   0  0  0  0  0  0  0  0  0  0  0  0
   -5.9076   -1.5909    2.4884 H   0  0  0  0  0  0  0  0  0  0  0  0
   -6.6733    2.4347    2.6649 H   0  0  0  0  0  0  0  0  0  0  0  0
   -2.4237    5.5358   -0.6970 H   0  0  0  0  0  0  0  0  0  0  0  0
   -0.2354    6.4615   -1.3092 H   0  0  0  0  0  0  0  0  0  0  0  0
    0.5012    4.8694   -1.3258 H   0  0  0  0  0  0  0  0  0  0  0  0
   -0.0797    5.5551    0.2113 H   0  0  0  0  0  0  0  0  0  0  0  0
   -2.8211    4.6550   -2.6530 H   0  0  0  0  0  0  0  0  0  0  0  0
    3.6572    0.3359    2.2635 H   0  0  0  0  0  0  0  0  0  0  0  0
    4.9111   -1.7151    2.8546 H   0  0  0  0  0  0  0  0  0  0  0  0
    3.8066   -1.2811    4.1576 H   0  0  0  0  0  0  0  0  0  0  0  0
    3.3960   -2.6126    3.0626 H   0  0  0  0  0  0  0  0  0  0  0  0
    1.6979   -0.1654    3.7584 H   0  0  0  0  0  0  0  0  0  0  0  0
    1.1020   -1.3284    2.5613 H   0  0  0  0  0  0  0  0  0  0  0  0
    1.2166    0.3977    2.1635 H   0  0  0  0  0  0  0  0  0  0  0  0
  1  2  1  0
  2  3  1  0
  2  4  1  0
  4  5  1  0
  4  6  1  0
  6  7  2  0
  6  8  1  0
  8  9  1  0
  9 10  1  0
 10 11  2  0
 10 12  1  0
 12 13  1  0
 13 14  1  0
 14 15  1  0
 13 16  1  0
 16 17  2  0
 16 18  1  0
 18 19  1  0
 19 20  1  0
 20 21  2  0
 20 22  1  0
 22 23  1  0
 23 24  1  0
 24 25  1  0
 25 26  2  0
 26 27  1  0
 27 28  2  0
 28 29  1  0
 28 30  1  0
 30 31  2  0
 23 32  1  0
 32 33  2  0
 32 34  1  0
 19 35  1  0
 35 36  1  0
 35 37  1  0
  9 38  1  0
 38 39  1  0
 38 40  1  0
 31 25  1  0
  1 41  1  0
  1 42  1  0
  1 43  1  0
  2 44  1  0
  3 45  1  0
  3 46  1  0
  3 47  1  0
  4 48  1  6
  5 49  1  0
  5 50  1  0
  8 51  1  0
  9 52  1  1
 12 53  1  0
 13 54  1  6
 14 55  1  0
 14 56  1  0
 15 57  1  0
 18 58  1  0
 19 59  1  1
 22 60  1  0
 23 61  1  6
 24 62  1  0
 24 63  1  0
 26 64  1  0
 27 65  1  0
 29 66  1  0
 30 67  1  0
 31 68  1  0
 34 69  1  0
 35 70  1  1
 36 71  1  0
 36 72  1  0
 36 73  1  0
 37 74  1  0
 38 75  1  0
 39 76  1  0
 39 77  1  0
 39 78  1  0
 40 79  1  0
 40 80  1  0
 40 81  1  0
M  END
$$$$
VVCTY.sdf
     RDKit          3D

 81 81  0  0  0  0  0  0  0  0999 V2000
    7.5019   -3.1645   -2.1976 C   0  0  0  0  0  0  0  0  0  0  0  0
    7.8919   -1.7543   -1.7401 C   0  0  0  0  0  0  0  0  0  0  0  0
    9.1894   -1.3255   -2.4339 C   0  0  0  0  0  0  0  0  0  0  0  0
    8.0056   -1.6173   -0.2028 C   0  0  2  0  0  0  0  0  0  0  0  0
    9.0203   -2.5225    0.3785 N   0  0  0  0  0  0  0  0  0  0  0  0
    6.6433   -1.8489    0.4975 C   0  0  0  0  0  0  0  0  0  0  0  0
    6.4298   -2.8109    1.2336 O   0  0  0  0  0  0  0  0  0  0  0  0
    5.6981   -0.8875    0.2423 N   0  0  0  0  0  0  0  0  0  0  0  0
    4.3482   -0.9369    0.8009 C   0  0  2  0  0  0  0  0  0  0  0  0
    3.4428   -0.1648   -0.1814 C   0  0  0  0  0  0  0  0  0  0  0  0
    3.8880    0.6875   -0.9507 O   0  0  0  0  0  0  0  0  0  0  0  0
    2.1117   -0.4857   -0.1323 N   0  0  0  0  0  0  0  0  0  0  0  0
    1.0973    0.2153   -0.9279 C   0  0  1  0  0  0  0  0  0  0  0  0
    1.1155   -0.2530   -2.3880 C   0  0  0  0  0  0  0  0  0  0  0  0
    0.2591    0.8958   -3.5152 S   0  0  0  0  0  0  0  0  0  0  0  0
   -0.2505   -0.0938   -0.2442 C   0  0  0  0  0  0  0  0  0  0  0  0
   -0.3470   -0.9528    0.6347 O   0  0  0  0  0  0  0  0  0  0  0  0
   -1.3200    0.6543   -0.6599 N   0  0  0  0  0  0  0  0  0  0  0  0
   -2.6802    0.4171   -0.1717 C   0  0  2  0  0  0  0  0  0  0  0  0
   -3.6669    1.1012   -1.1441 C   0  0  0  0  0  0  0  0  0  0  0  0
   -3.2846    1.7458   -2.1205 O   0  0  0  0  0  0  0  0  0  0  0  0
   -4.9979    0.8881   -0.8619 N   0  0  0  0  0  0  0  0  0  0  0  0
   -6.0507    1.5860   -1.6014 C   0  0  1  0  0  0  0  0  0  0  0  0
   -7.3531    0.7720   -1.6654 C   0  0  0  0  0  0  0  0  0  0  0  0
   -7.9803    0.4572   -0.3244 C   0  0  0  0  0  0  0  0  0  0  0  0
   -7.6062   -0.6949    0.3825 C   0  0  0  0  0  0  0  0  0  0  0  0
   -8.1671   -0.9731    1.6294 C   0  0  0  0  0  0  0  0  0  0  0  0
   -9.1058   -0.1048    2.1714 C   0  0  0  0  0  0  0  0  0  0  0  0
   -9.6271   -0.4142    3.3926 O   0  0  0  0  0  0  0  0  0  0  0  0
   -9.4966    1.0396    1.4849 C   0  0  0  0  0  0  0  0  0  0  0  0
   -8.9340    1.3190    0.2372 C   0  0  0  0  0  0  0  0  0  0  0  0
   -6.2895    2.9742   -1.0037 C   0  0  0  0  0  0  0  0  0  0  0  0
   -5.8750    3.4026    0.0627 O   0  0  0  0  0  0  0  0  0  0  0  0
   -7.0521    3.7621   -1.7929 O   0  0  0  0  0  0  0  0  0  0  0  0
   -2.8880    0.8676    1.2923 C   0  0  1  0  0  0  0  0  0  0  0  0
   -2.6817    2.3637    1.5072 C   0  0  0  0  0  0  0  0  0  0  0  0
   -4.2051    0.5029    1.7318 O   0  0  0  0  0  0  0  0  0  0  0  0
    4.3196   -0.3855    2.2457 C   0  0  0  0  0  0  0  0  0  0  0  0
    3.0007   -0.6818    2.9628 C   0  0  0  0  0  0  0  0  0  0  0  0
    4.6306    1.1129    2.3217 C   0  0  0  0  0  0  0  0  0  0  0  0
    6.5621   -3.4859   -1.7380 H   0  0  0  0  0  0  0  0  0  0  0  0
    8.2735   -3.9011   -1.9517 H   0  0  0  0  0  0  0  0  0  0  0  0
    7.3596   -3.1872   -3.2837 H   0  0  0  0  0  0  0  0  0  0  0  0
    7.1028   -1.0758   -2.0894 H   0  0  0  0  0  0  0  0  0  0  0  0
    9.4683   -0.3077   -2.1414 H   0  0  0  0  0  0  0  0  0  0  0  0
    9.0657   -1.3358   -3.5223 H   0  0  0  0  0  0  0  0  0  0  0  0
   10.0219   -1.9924   -2.1868 H   0  0  0  0  0  0  0  0  0  0  0  0
    8.3127   -0.5920    0.0407 H   0  0  0  0  0  0  0  0  0  0  0  0
    9.0372   -2.3606    1.3881 H   0  0  0  0  0  0  0  0  0  0  0  0
    8.6556   -3.4766    0.3068 H   0  0  0  0  0  0  0  0  0  0  0  0
    5.9056   -0.1057   -0.3734 H   0  0  0  0  0  0  0  0  0  0  0  0
    4.0342   -1.9885    0.7997 H   0  0  0  0  0  0  0  0  0  0  0  0
    1.7658   -1.1769    0.5306 H   0  0  0  0  0  0  0  0  0  0  0  0
    1.3046    1.2889   -0.8429 H   0  0  0  0  0  0  0  0  0  0  0  0
    2.1429   -0.3459   -2.7547 H   0  0  0  0  0  0  0  0  0  0  0  0
    0.6480   -1.2391   -2.4860 H   0  0  0  0  0  0  0  0  0  0  0  0
    0.5564    0.2464   -4.6512 H   0  0  0  0  0  0  0  0  0  0  0  0
   -1.2439    1.2097   -1.5142 H   0  0  0  0  0  0  0  0  0  0  0  0
   -2.8732   -0.6615   -0.2461 H   0  0  0  0  0  0  0  0  0  0  0  0
   -5.1908    0.6829    0.1227 H   0  0  0  0  0  0  0  0  0  0  0  0
   -5.6857    1.7432   -2.6241 H   0  0  0  0  0  0  0  0  0  0  0  0
   -7.1602   -0.1750   -2.1874 H   0  0  0  0  0  0  0  0  0  0  0  0
   -8.0924    1.2996   -2.2824 H   0  0  0  0  0  0  0  0  0  0  0  0
   -6.8715   -1.3832   -0.0303 H   0  0  0  0  0  0  0  0  0  0  0  0
   -7.8717   -1.8644    2.1755 H   0  0  0  0  0  0  0  0  0  0  0  0
  -10.2709    0.2707    3.6361 H   0  0  0  0  0  0  0  0  0  0  0  0
  -10.2310    1.7220    1.9008 H   0  0  0  0  0  0  0  0  0  0  0  0
   -9.2473    2.2156   -0.2936 H   0  0  0  0  0  0  0  0  0  0  0  0
   -7.0746    4.6172   -1.3130 H   0  0  0  0  0  0  0  0  0  0  0  0
   -2.1867    0.3282    1.9385 H   0  0  0  0  0  0  0  0  0  0  0  0
   -1.6712    2.6748    1.2265 H   0  0  0  0  0  0  0  0  0  0  0  0
   -3.4015    2.9550    0.9346 H   0  0  0  0  0  0  0  0  0  0  0  0
   -2.8390    2.6207    2.5604 H   0  0  0  0  0  0  0  0  0  0  0  0
   -4.2809    0.7673    2.6679 H   0  0  0  0  0  0  0  0  0  0  0  0
    5.1054   -0.9026    2.8132 H   0  0  0  0  0  0  0  0  0  0  0  0
    3.0852   -0.4428    4.0288 H   0  0  0  0  0  0  0  0  0  0  0  0
    2.7387   -1.7416    2.8813 H   0  0  0  0  0  0  0  0  0  0  0  0
    2.1742   -0.0873    2.5620 H   0  0  0  0  0  0  0  0  0  0  0  0
    5.5931    1.3433    1.8541 H   0  0  0  0  0  0  0  0  0  0  0  0
    4.6860    1.4398    3.3659 H   0  0  0  0  0  0  0  0  0  0  0  0
    3.8582    1.7122    1.8286 H   0  0  0  0  0  0  0  0  0  0  0  0
  1  2  1  0
  2  3  1  0
  2  4  1  0
  4  5  1  0
  4  6  1  0
  6  7  2  0
  6  8  1  0
  8  9  1  0
  9 10  1  0
 10 11  2  0
 10 12  1  0
 12 13  1  0
 13 14  1  0
 14 15  1  0
 13 16  1  0
 16 17  2  0
 16 18  1  0
 18 19  1  0
 19 20  1  0
 20 21  2  0
 20 22  1  0
 22 23  1  0
 23 24  1  0
 24 25  1  0
 25 26  2  0
 26 27  1  0
 27 28  2  0
 28 29  1  0
 28 30  1  0
 30 31  2  0
 23 32  1  0
 32 33  2  0
 32 34  1  0
 19 35  1  0
 35 36  1  0
 35 37  1  0
  9 38  1  0
 38 39  1  0
 38 40  1  0
 31 25  1  0
  1 41  1  0
  1 42  1  0
  1 43  1  0
  2 44  1  0
  3 45  1  0
  3 46  1  0
  3 47  1  0
  4 48  1  6
  5 49  1  0
  5 50  1  0
  8 51  1  0
  9 52  1  1
 12 53  1  0
 13 54  1  6
 14 55  1  0
 14 56  1  0
 15 57  1  0
 18 58  1  0
 19 59  1  1
 22 60  1  0
 23 61  1  6
 24 62  1  0
 24 63  1  0
 26 64  1  0
 27 65  1  0
 29 66  1  0
 30 67  1  0
 31 68  1  0
 34 69  1  0
 35 70  1  1
 36 71  1  0
 36 72  1  0
 36 73  1  0
 37 74  1  0
 38 75  1  0
 39 76  1  0
 39 77  1  0
 39 78  1  0
 40 79  1  0
 40 80  1  0
 40 81  1  0
M  END
$$$$
VVCTY.sdf
     RDKit          3D

 81 81  0  0  0  0  0  0  0  0999 V2000
    8.4644    0.3610   -1.5771 C   0  0  0  0  0  0  0  0  0  0  0  0
    7.1853   -0.4526   -1.3526 C   0  0  0  0  0  0  0  0  0  0  0  0
    6.7352   -1.0854   -2.6743 C   0  0  0  0  0  0  0  0  0  0  0  0
    7.3664   -1.4803   -0.2094 C   0  0  2  0  0  0  0  0  0  0  0  0
    8.3897   -2.5032   -0.5175 N   0  0  0  0  0  0  0  0  0  0  0  0
    6.0309   -2.1796    0.1516 C   0  0  0  0  0  0  0  0  0  0  0  0
    5.8210   -3.3668   -0.0927 O   0  0  0  0  0  0  0  0  0  0  0  0
    5.1173   -1.3711    0.7941 N   0  0  0  0  0  0  0  0  0  0  0  0
    3.7258   -1.7920    0.9437 C   0  0  2  0  0  0  0  0  0  0  0  0
    2.9090   -1.0879   -0.1631 C   0  0  0  0  0  0  0  0  0  0  0  0
    3.3174   -0.0801   -0.7418 O   0  0  0  0  0  0  0  0  0  0  0  0
    1.6701   -1.6397   -0.4124 N   0  0  0  0  0  0  0  0  0  0  0  0
    0.7125   -0.9227   -1.2523 C   0  0  1  0  0  0  0  0  0  0  0  0
   -0.3352   -1.8452   -1.8854 C   0  0  0  0  0  0  0  0  0  0  0  0
    0.3968   -3.0064   -3.0827 S   0  0  0  0  0  0  0  0  0  0  0  0
   -0.0314    0.0718   -0.3430 C   0  0  0  0  0  0  0  0  0  0  0  0
   -0.2734   -0.1698    0.8390 O   0  0  0  0  0  0  0  0  0  0  0  0
   -0.4508    1.2264   -0.9715 N   0  0  0  0  0  0  0  0  0  0  0  0
   -1.4077    2.1243   -0.3045 C   0  0  2  0  0  0  0  0  0  0  0  0
   -2.8067    1.6106   -0.6829 C   0  0  0  0  0  0  0  0  0  0  0  0
   -3.0497    1.1655   -1.8042 O   0  0  0  0  0  0  0  0  0  0  0  0
   -3.7458    1.6748    0.3205 N   0  0  0  0  0  0  0  0  0  0  0  0
   -5.1602    1.3537    0.0752 C   0  0  1  0  0  0  0  0  0  0  0  0
   -5.7569    0.6381    1.2931 C   0  0  0  0  0  0  0  0  0  0  0  0
   -7.1619    0.1316    1.0725 C   0  0  0  0  0  0  0  0  0  0  0  0
   -8.2525    0.7802    1.6692 C   0  0  0  0  0  0  0  0  0  0  0  0
   -9.5517    0.3197    1.4521 C   0  0  0  0  0  0  0  0  0  0  0  0
   -9.7643   -0.7872    0.6403 C   0  0  0  0  0  0  0  0  0  0  0  0
  -11.0500   -1.2010    0.4551 O   0  0  0  0  0  0  0  0  0  0  0  0
   -8.6967   -1.4460    0.0404 C   0  0  0  0  0  0  0  0  0  0  0  0
   -7.3958   -0.9859    0.2575 C   0  0  0  0  0  0  0  0  0  0  0  0
   -5.8852    2.6749   -0.1632 C   0  0  0  0  0  0  0  0  0  0  0  0
   -5.6870    3.7148    0.4501 O   0  0  0  0  0  0  0  0  0  0  0  0
   -6.8110    2.6156   -1.1379 O   0  0  0  0  0  0  0  0  0  0  0  0
   -1.1924    3.5669   -0.7941 C   0  0  1  0  0  0  0  0  0  0  0  0
   -2.1111    4.5785   -0.1244 C   0  0  0  0  0  0  0  0  0  0  0  0
    0.1548    3.9692   -0.5066 O   0  0  0  0  0  0  0  0  0  0  0  0
    3.1617   -1.4766    2.3473 C   0  0  0  0  0  0  0  0  0  0  0  0
    3.2498    0.0072    2.7194 C   0  0  0  0  0  0  0  0  0  0  0  0
    3.8598   -2.3235    3.4159 C   0  0  0  0  0  0  0  0  0  0  0  0
    8.2944    1.1489   -2.3189 H   0  0  0  0  0  0  0  0  0  0  0  0
    8.7859    0.8438   -0.6482 H   0  0  0  0  0  0  0  0  0  0  0  0
    9.2864   -0.2654   -1.9391 H   0  0  0  0  0  0  0  0  0  0  0  0
    6.4030    0.2584   -1.0578 H   0  0  0  0  0  0  0  0  0  0  0  0
    5.8024   -1.6444   -2.5504 H   0  0  0  0  0  0  0  0  0  0  0  0
    6.5531   -0.3094   -3.4261 H   0  0  0  0  0  0  0  0  0  0  0  0
    7.4915   -1.7651   -3.0798 H   0  0  0  0  0  0  0  0  0  0  0  0
    7.7013   -0.9527    0.6930 H   0  0  0  0  0  0  0  0  0  0  0  0
    8.0059   -3.1036   -1.2532 H   0  0  0  0  0  0  0  0  0  0  0  0
    8.4470   -3.1343    0.2849 H   0  0  0  0  0  0  0  0  0  0  0  0
    5.2452   -0.3711    0.6834 H   0  0  0  0  0  0  0  0  0  0  0  0
    3.6500   -2.8708    0.7601 H   0  0  0  0  0  0  0  0  0  0  0  0
    1.2808   -2.2476    0.2985 H   0  0  0  0  0  0  0  0  0  0  0  0
    1.2519   -0.3598   -2.0240 H   0  0  0  0  0  0  0  0  0  0  0  0
   -0.8500   -2.4330   -1.1169 H   0  0  0  0  0  0  0  0  0  0  0  0
   -1.0975   -1.2601   -2.4110 H   0  0  0  0  0  0  0  0  0  0  0  0
   -0.7443   -3.6290   -3.4136 H   0  0  0  0  0  0  0  0  0  0  0  0
   -0.5238    1.1956   -1.9843 H   0  0  0  0  0  0  0  0  0  0  0  0
   -1.2544    2.0578    0.7785 H   0  0  0  0  0  0  0  0  0  0  0  0
   -3.5528    2.2693    1.1206 H   0  0  0  0  0  0  0  0  0  0  0  0
   -5.2331    0.7380   -0.8280 H   0  0  0  0  0  0  0  0  0  0  0  0
   -5.1245   -0.2178    1.5658 H   0  0  0  0  0  0  0  0  0  0  0  0
   -5.7378    1.3016    2.1685 H   0  0  0  0  0  0  0  0  0  0  0  0
   -8.1026    1.6486    2.3072 H   0  0  0  0  0  0  0  0  0  0  0  0
  -10.3958    0.8227    1.9153 H   0  0  0  0  0  0  0  0  0  0  0  0
  -11.0444   -1.9781   -0.1273 H   0  0  0  0  0  0  0  0  0  0  0  0
   -8.8547   -2.3116   -0.5949 H   0  0  0  0  0  0  0  0  0  0  0  0
   -6.5654   -1.5068   -0.2151 H   0  0  0  0  0  0  0  0  0  0  0  0
   -7.2076    3.5108   -1.1713 H   0  0  0  0  0  0  0  0  0  0  0  0
   -1.3218    3.6286   -1.8813 H   0  0  0  0  0  0  0  0  0  0  0  0
   -1.8332    5.5978   -0.4146 H   0  0  0  0  0  0  0  0  0  0  0  0
   -2.0223    4.5276    0.9663 H   0  0  0  0  0  0  0  0  0  0  0  0
   -3.1560    4.4200   -0.4016 H   0  0  0  0  0  0  0  0  0  0  0  0
    0.7348    3.2180   -0.7353 H   0  0  0  0  0  0  0  0  0  0  0  0
    2.0986   -1.7495    2.3627 H   0  0  0  0  0  0  0  0  0  0  0  0
    2.7186    0.6318    1.9945 H   0  0  0  0  0  0  0  0  0  0  0  0
    2.7919    0.1833    3.6990 H   0  0  0  0  0  0  0  0  0  0  0  0
    4.2876    0.3518    2.7734 H   0  0  0  0  0  0  0  0  0  0  0  0
    3.4016   -2.1613    4.3975 H   0  0  0  0  0  0  0  0  0  0  0  0
    4.9231   -2.0747    3.4976 H   0  0  0  0  0  0  0  0  0  0  0  0
    3.7763   -3.3901    3.1824 H   0  0  0  0  0  0  0  0  0  0  0  0
  1  2  1  0
  2  3  1  0
  2  4  1  0
  4  5  1  0
  4  6  1  0
  6  7  2  0
  6  8  1  0
  8  9  1  0
  9 10  1  0
 10 11  2  0
 10 12  1  0
 12 13  1  0
 13 14  1  0
 14 15  1  0
 13 16  1  0
 16 17  2  0
 16 18  1  0
 18 19  1  0
 19 20  1  0
 20 21  2  0
 20 22  1  0
 22 23  1  0
 23 24  1  0
 24 25  1  0
 25 26  2  0
 26 27  1  0
 27 28  2  0
 28 29  1  0
 28 30  1  0
 30 31  2  0
 23 32  1  0
 32 33  2  0
 32 34  1  0
 19 35  1  0
 35 36  1  0
 35 37  1  0
  9 38  1  0
 38 39  1  0
 38 40  1  0
 31 25  1  0
  1 41  1  0
  1 42  1  0
  1 43  1  0
  2 44  1  0
  3 45  1  0
  3 46  1  0
  3 47  1  0
  4 48  1  1
  5 49  1  0
  5 50  1  0
  8 51  1  0
  9 52  1  6
 12 53  1  0
 13 54  1  6
 14 55  1  0
 14 56  1  0
 15 57  1  0
 18 58  1  0
 19 59  1  1
 22 60  1  0
 23 61  1  6
 24 62  1  0
 24 63  1  0
 26 64  1  0
 27 65  1  0
 29 66  1  0
 30 67  1  0
 31 68  1  0
 34 69  1  0
 35 70  1  6
 36 71  1  0
 36 72  1  0
 36 73  1  0
 37 74  1  0
 38 75  1  0
 39 76  1  0
 39 77  1  0
 39 78  1  0
 40 79  1  0
 40 80  1  0
 40 81  1  0
M  END
$$$$
VVCTY.sdf
     RDKit          3D

 81 81  0  0  0  0  0  0  0  0999 V2000
    5.8123   -2.0024   -3.1001 C   0  0  0  0  0  0  0  0  0  0  0  0
    6.6413   -1.0723   -2.2069 C   0  0  0  0  0  0  0  0  0  0  0  0
    7.8437   -0.5369   -2.9919 C   0  0  0  0  0  0  0  0  0  0  0  0
    7.0859   -1.7311   -0.8788 C   0  0  2  0  0  0  0  0  0  0  0  0
    7.9311   -2.9268   -1.0885 N   0  0  0  0  0  0  0  0  0  0  0  0
    5.8728   -2.1068    0.0099 C   0  0  0  0  0  0  0  0  0  0  0  0
    5.5351   -3.2733    0.2067 O   0  0  0  0  0  0  0  0  0  0  0  0
    5.2255   -1.0296    0.5792 N   0  0  0  0  0  0  0  0  0  0  0  0
    3.9166   -1.2031    1.2058 C   0  0  2  0  0  0  0  0  0  0  0  0
    2.8447   -0.8772    0.1397 C   0  0  0  0  0  0  0  0  0  0  0  0
    3.0977   -0.2041   -0.8595 O   0  0  0  0  0  0  0  0  0  0  0  0
    1.5865   -1.3716    0.4155 N   0  0  0  0  0  0  0  0  0  0  0  0
    0.4186   -0.8876   -0.3317 C   0  0  1  0  0  0  0  0  0  0  0  0
   -0.5646   -2.0360   -0.5860 C   0  0  0  0  0  0  0  0  0  0  0  0
   -1.7358   -1.6829   -1.9449 S   0  0  0  0  0  0  0  0  0  0  0  0
   -0.2246    0.2158    0.5396 C   0  0  0  0  0  0  0  0  0  0  0  0
    0.1305    0.4252    1.7000 O   0  0  0  0  0  0  0  0  0  0  0  0
   -1.2243    0.9365   -0.0788 N   0  0  0  0  0  0  0  0  0  0  0  0
   -2.1350    1.7682    0.7130 C   0  0  2  0  0  0  0  0  0  0  0  0
   -3.3634    0.9059    1.1066 C   0  0  0  0  0  0  0  0  0  0  0  0
   -3.3482   -0.3240    1.0462 O   0  0  0  0  0  0  0  0  0  0  0  0
   -4.4396    1.6093    1.5909 N   0  0  0  0  0  0  0  0  0  0  0  0
   -5.6491    0.9892    2.1390 C   0  0  1  0  0  0  0  0  0  0  0  0
   -6.3116   -0.0697    1.2360 C   0  0  0  0  0  0  0  0  0  0  0  0
   -6.5823    0.3964   -0.1778 C   0  0  0  0  0  0  0  0  0  0  0  0
   -7.5325    1.3938   -0.4368 C   0  0  0  0  0  0  0  0  0  0  0  0
   -7.7661    1.8219   -1.7447 C   0  0  0  0  0  0  0  0  0  0  0  0
   -7.0566    1.2522   -2.7950 C   0  0  0  0  0  0  0  0  0  0  0  0
   -7.3169    1.7020   -4.0556 O   0  0  0  0  0  0  0  0  0  0  0  0
   -6.1147    0.2568   -2.5613 C   0  0  0  0  0  0  0  0  0  0  0  0
   -5.8804   -0.1704   -1.2528 C   0  0  0  0  0  0  0  0  0  0  0  0
   -5.3397    0.4556    3.5430 C   0  0  0  0  0  0  0  0  0  0  0  0
   -4.4696    0.8681    4.2977 O   0  0  0  0  0  0  0  0  0  0  0  0
   -6.1957   -0.4911    3.9779 O   0  0  0  0  0  0  0  0  0  0  0  0
   -2.4801    3.0756   -0.0288 C   0  0  1  0  0  0  0  0  0  0  0  0
   -3.3736    2.9006   -1.2509 C   0  0  0  0  0  0  0  0  0  0  0  0
   -3.1140    4.0008    0.8676 O   0  0  0  0  0  0  0  0  0  0  0  0
    3.7438   -0.3284    2.4678 C   0  0  0  0  0  0  0  0  0  0  0  0
    3.9335    1.1687    2.2027 C   0  0  0  0  0  0  0  0  0  0  0  0
    4.6939   -0.7845    3.5794 C   0  0  0  0  0  0  0  0  0  0  0  0
    5.4638   -1.4660   -3.9897 H   0  0  0  0  0  0  0  0  0  0  0  0
    6.3939   -2.8643   -3.4426 H   0  0  0  0  0  0  0  0  0  0  0  0
    4.9264   -2.3729   -2.5749 H   0  0  0  0  0  0  0  0  0  0  0  0
    6.0058   -0.2097   -1.9694 H   0  0  0  0  0  0  0  0  0  0  0  0
    8.4328    0.1524   -2.3780 H   0  0  0  0  0  0  0  0  0  0  0  0
    7.5106    0.0115   -3.8798 H   0  0  0  0  0  0  0  0  0  0  0  0
    8.5026   -1.3446   -3.3271 H   0  0  0  0  0  0  0  0  0  0  0  0
    7.6855   -1.0102   -0.3080 H   0  0  0  0  0  0  0  0  0  0  0  0
    8.1855   -3.2912   -0.1678 H   0  0  0  0  0  0  0  0  0  0  0  0
    7.3271   -3.6620   -1.4672 H   0  0  0  0  0  0  0  0  0  0  0  0
    5.3543   -0.1377    0.1144 H   0  0  0  0  0  0  0  0  0  0  0  0
    3.7865   -2.2572    1.4812 H   0  0  0  0  0  0  0  0  0  0  0  0
    1.4023   -1.6033    1.3866 H   0  0  0  0  0  0  0  0  0  0  0  0
    0.7566   -0.4381   -1.2722 H   0  0  0  0  0  0  0  0  0  0  0  0
   -1.1433   -2.2662    0.3153 H   0  0  0  0  0  0  0  0  0  0  0  0
   -0.0209   -2.9447   -0.8669 H   0  0  0  0  0  0  0  0  0  0  0  0
   -2.4270   -2.8291   -1.8419 H   0  0  0  0  0  0  0  0  0  0  0  0
   -1.6419    0.4880   -0.8911 H   0  0  0  0  0  0  0  0  0  0  0  0
   -1.6498    2.0301    1.6620 H   0  0  0  0  0  0  0  0  0  0  0  0
   -4.3420    2.6200    1.6786 H   0  0  0  0  0  0  0  0  0  0  0  0
   -6.3544    1.8171    2.2854 H   0  0  0  0  0  0  0  0  0  0  0  0
   -5.7158   -0.9905    1.2187 H   0  0  0  0  0  0  0  0  0  0  0  0
   -7.2745   -0.3721    1.6701 H   0  0  0  0  0  0  0  0  0  0  0  0
   -8.1001    1.8436    0.3739 H   0  0  0  0  0  0  0  0  0  0  0  0
   -8.5014    2.5961   -1.9443 H   0  0  0  0  0  0  0  0  0  0  0  0
   -6.7703    1.1987   -4.6810 H   0  0  0  0  0  0  0  0  0  0  0  0
   -5.5554   -0.1947   -3.3743 H   0  0  0  0  0  0  0  0  0  0  0  0
   -5.1380   -0.9459   -1.0720 H   0  0  0  0  0  0  0  0  0  0  0  0
   -5.8661   -0.7058    4.8766 H   0  0  0  0  0  0  0  0  0  0  0  0
   -1.5481    3.5488   -0.3640 H   0  0  0  0  0  0  0  0  0  0  0  0
   -2.9575    2.1802   -1.9607 H   0  0  0  0  0  0  0  0  0  0  0  0
   -3.4897    3.8605   -1.7668 H   0  0  0  0  0  0  0  0  0  0  0  0
   -4.3830    2.5870   -0.9735 H   0  0  0  0  0  0  0  0  0  0  0  0
   -2.4042    4.4327    1.3801 H   0  0  0  0  0  0  0  0  0  0  0  0
    2.7211   -0.4616    2.8431 H   0  0  0  0  0  0  0  0  0  0  0  0
    3.7481    1.7448    3.1161 H   0  0  0  0  0  0  0  0  0  0  0  0
    3.2346    1.5303    1.4422 H   0  0  0  0  0  0  0  0  0  0  0  0
    4.9511    1.3970    1.8697 H   0  0  0  0  0  0  0  0  0  0  0  0
    4.5467   -1.8458    3.8055 H   0  0  0  0  0  0  0  0  0  0  0  0
    4.5106   -0.2200    4.5000 H   0  0  0  0  0  0  0  0  0  0  0  0
    5.7426   -0.6378    3.3000 H   0  0  0  0  0  0  0  0  0  0  0  0
  1  2  1  0
  2  3  1  0
  2  4  1  0
  4  5  1  0
  4  6  1  0
  6  7  2  0
  6  8  1  0
  8  9  1  0
  9 10  1  0
 10 11  2  0
 10 12  1  0
 12 13  1  0
 13 14  1  0
 14 15  1  0
 13 16  1  0
 16 17  2  0
 16 18  1  0
 18 19  1  0
 19 20  1  0
 20 21  2  0
 20 22  1  0
 22 23  1  0
 23 24  1  0
 24 25  1  0
 25 26  2  0
 26 27  1  0
 27 28  2  0
 28 29  1  0
 28 30  1  0
 30 31  2  0
 23 32  1  0
 32 33  2  0
 32 34  1  0
 19 35  1  0
 35 36  1  0
 35 37  1  0
  9 38  1  0
 38 39  1  0
 38 40  1  0
 31 25  1  0
  1 41  1  0
  1 42  1  0
  1 43  1  0
  2 44  1  0
  3 45  1  0
  3 46  1  0
  3 47  1  0
  4 48  1  1
  5 49  1  0
  5 50  1  0
  8 51  1  0
  9 52  1  1
 12 53  1  0
 13 54  1  6
 14 55  1  0
 14 56  1  0
 15 57  1  0
 18 58  1  0
 19 59  1  1
 22 60  1  0
 23 61  1  1
 24 62  1  0
 24 63  1  0
 26 64  1  0
 27 65  1  0
 29 66  1  0
 30 67  1  0
 31 68  1  0
 34 69  1  0
 35 70  1  6
 36 71  1  0
 36 72  1  0
 36 73  1  0
 37 74  1  0
 38 75  1  0
 39 76  1  0
 39 77  1  0
 39 78  1  0
 40 79  1  0
 40 80  1  0
 40 81  1  0
M  END
$$$$
VVCTY.sdf
     RDKit          3D

 81 81  0  0  0  0  0  0  0  0999 V2000
    7.9120   -3.9707   -2.4241 C   0  0  0  0  0  0  0  0  0  0  0  0
    8.6646   -2.8724   -1.6573 C   0  0  0  0  0  0  0  0  0  0  0  0
    9.9397   -2.5295   -2.4398 C   0  0  0  0  0  0  0  0  0  0  0  0
    7.7542   -1.6405   -1.4261 C   0  0  2  0  0  0  0  0  0  0  0  0
    8.5068   -0.4990   -0.8599 N   0  0  0  0  0  0  0  0  0  0  0  0
    6.5780   -1.9500   -0.4589 C   0  0  0  0  0  0  0  0  0  0  0  0
    6.4798   -2.9678    0.2193 O   0  0  0  0  0  0  0  0  0  0  0  0
    5.6329   -0.9450   -0.4215 N   0  0  0  0  0  0  0  0  0  0  0  0
    4.4508   -1.0080    0.4342 C   0  0  2  0  0  0  0  0  0  0  0  0
    3.3801   -0.1254   -0.2399 C   0  0  0  0  0  0  0  0  0  0  0  0
    3.6725    0.7756   -1.0276 O   0  0  0  0  0  0  0  0  0  0  0  0
    2.0845   -0.4054    0.1037 N   0  0  0  0  0  0  0  0  0  0  0  0
    0.9497    0.3802   -0.3824 C   0  0  1  0  0  0  0  0  0  0  0  0
    0.6013    0.1014   -1.8520 C   0  0  0  0  0  0  0  0  0  0  0  0
    0.2617   -1.6570   -2.2146 S   0  0  0  0  0  0  0  0  0  0  0  0
   -0.2400    0.1246    0.5604 C   0  0  0  0  0  0  0  0  0  0  0  0
   -0.2081   -0.7488    1.4291 O   0  0  0  0  0  0  0  0  0  0  0  0
   -1.3203    0.9444    0.3773 N   0  0  0  0  0  0  0  0  0  0  0  0
   -2.5341    0.8573    1.1850 C   0  0  2  0  0  0  0  0  0  0  0  0
   -3.7264    1.1675    0.2571 C   0  0  0  0  0  0  0  0  0  0  0  0
   -3.5930    1.7363   -0.8259 O   0  0  0  0  0  0  0  0  0  0  0  0
   -4.9568    0.7584    0.7350 N   0  0  0  0  0  0  0  0  0  0  0  0
   -6.1973    1.2086    0.0835 C   0  0  1  0  0  0  0  0  0  0  0  0
   -7.2901    0.1450    0.2394 C   0  0  0  0  0  0  0  0  0  0  0  0
   -8.5520    0.4444   -0.5333 C   0  0  0  0  0  0  0  0  0  0  0  0
   -8.5697    0.3371   -1.9312 C   0  0  0  0  0  0  0  0  0  0  0  0
   -9.7340    0.6212   -2.6461 C   0  0  0  0  0  0  0  0  0  0  0  0
  -10.8817    1.0109   -1.9677 C   0  0  0  0  0  0  0  0  0  0  0  0
  -11.9966    1.2770   -2.7059 O   0  0  0  0  0  0  0  0  0  0  0  0
  -10.8860    1.1226   -0.5816 C   0  0  0  0  0  0  0  0  0  0  0  0
   -9.7206    0.8392    0.1348 C   0  0  0  0  0  0  0  0  0  0  0  0
   -6.6095    2.4960    0.7940 C   0  0  0  0  0  0  0  0  0  0  0  0
   -6.4870    2.7139    1.9929 O   0  0  0  0  0  0  0  0  0  0  0  0
   -7.1552    3.4162   -0.0214 O   0  0  0  0  0  0  0  0  0  0  0  0
   -2.5202    1.8381    2.3798 C   0  0  1  0  0  0  0  0  0  0  0  0
   -1.5612    1.4051    3.4833 C   0  0  0  0  0  0  0  0  0  0  0  0
   -2.1418    3.1489    1.9406 O   0  0  0  0  0  0  0  0  0  0  0  0
    4.7868   -0.5876    1.8844 C   0  0  0  0  0  0  0  0  0  0  0  0
    3.6581   -0.9073    2.8670 C   0  0  0  0  0  0  0  0  0  0  0  0
    5.1820    0.8880    2.0041 C   0  0  0  0  0  0  0  0  0  0  0  0
    7.0247   -4.3123   -1.8840 H   0  0  0  0  0  0  0  0  0  0  0  0
    8.5540   -4.8452   -2.5768 H   0  0  0  0  0  0  0  0  0  0  0  0
    7.5902   -3.6142   -3.4088 H   0  0  0  0  0  0  0  0  0  0  0  0
    8.9685   -3.2875   -0.6872 H   0  0  0  0  0  0  0  0  0  0  0  0
   10.5169   -3.4344   -2.6595 H   0  0  0  0  0  0  0  0  0  0  0  0
    9.7016   -2.0417   -3.3912 H   0  0  0  0  0  0  0  0  0  0  0  0
   10.5948   -1.8657   -1.8669 H   0  0  0  0  0  0  0  0  0  0  0  0
    7.3195   -1.3250   -2.3835 H   0  0  0  0  0  0  0  0  0  0  0  0
    9.1502   -0.1335   -1.5591 H   0  0  0  0  0  0  0  0  0  0  0  0
    7.8659    0.2579   -0.6289 H   0  0  0  0  0  0  0  0  0  0  0  0
    5.7071   -0.1467   -1.0438 H   0  0  0  0  0  0  0  0  0  0  0  0
    4.0944   -2.0458    0.4217 H   0  0  0  0  0  0  0  0  0  0  0  0
    1.8637   -1.1493    0.7619 H   0  0  0  0  0  0  0  0  0  0  0  0
    1.2222    1.4385   -0.2791 H   0  0  0  0  0  0  0  0  0  0  0  0
   -0.2778    0.6770   -2.1587 H   0  0  0  0  0  0  0  0  0  0  0  0
    1.4304    0.4059   -2.4988 H   0  0  0  0  0  0  0  0  0  0  0  0
    1.4690   -2.1152   -1.8517 H   0  0  0  0  0  0  0  0  0  0  0  0
   -1.2946    1.7238   -0.2734 H   0  0  0  0  0  0  0  0  0  0  0  0
   -2.6527   -0.1732    1.5419 H   0  0  0  0  0  0  0  0  0  0  0  0
   -5.0317    0.5565    1.7252 H   0  0  0  0  0  0  0  0  0  0  0  0
   -5.9894    1.4284   -0.9692 H   0  0  0  0  0  0  0  0  0  0  0  0
   -7.5334    0.0072    1.3018 H   0  0  0  0  0  0  0  0  0  0  0  0
   -6.9087   -0.8286   -0.0977 H   0  0  0  0  0  0  0  0  0  0  0  0
   -7.6786    0.0314   -2.4758 H   0  0  0  0  0  0  0  0  0  0  0  0
   -9.7448    0.5383   -3.7292 H   0  0  0  0  0  0  0  0  0  0  0  0
  -12.7148    1.5287   -2.1032 H   0  0  0  0  0  0  0  0  0  0  0  0
  -11.7792    1.4256   -0.0447 H   0  0  0  0  0  0  0  0  0  0  0  0
   -9.7338    0.9291    1.2190 H   0  0  0  0  0  0  0  0  0  0  0  0
   -7.3549    4.1852    0.5504 H   0  0  0  0  0  0  0  0  0  0  0  0
   -3.5261    1.9196    2.8070 H   0  0  0  0  0  0  0  0  0  0  0  0
   -1.6447    2.0806    4.3420 H   0  0  0  0  0  0  0  0  0  0  0  0
   -1.7773    0.3883    3.8243 H   0  0  0  0  0  0  0  0  0  0  0  0
   -0.5190    1.4598    3.1528 H   0  0  0  0  0  0  0  0  0  0  0  0
   -2.1677    3.7389    2.7146 H   0  0  0  0  0  0  0  0  0  0  0  0
    5.6561   -1.1766    2.2072 H   0  0  0  0  0  0  0  0  0  0  0  0
    4.0010   -0.7686    3.8984 H   0  0  0  0  0  0  0  0  0  0  0  0
    2.7922   -0.2541    2.7229 H   0  0  0  0  0  0  0  0  0  0  0  0
    3.3307   -1.9469    2.7644 H   0  0  0  0  0  0  0  0  0  0  0  0
    6.0198    1.1300    1.3426 H   0  0  0  0  0  0  0  0  0  0  0  0
    5.4951    1.1184    3.0284 H   0  0  0  0  0  0  0  0  0  0  0  0
    4.3474    1.5520    1.7566 H   0  0  0  0  0  0  0  0  0  0  0  0
  1  2  1  0
  2  3  1  0
  2  4  1  0
  4  5  1  0
  4  6  1  0
  6  7  2  0
  6  8  1  0
  8  9  1  0
  9 10  1  0
 10 11  2  0
 10 12  1  0
 12 13  1  0
 13 14  1  0
 14 15  1  0
 13 16  1  0
 16 17  2  0
 16 18  1  0
 18 19  1  0
 19 20  1  0
 20 21  2  0
 20 22  1  0
 22 23  1  0
 23 24  1  0
 24 25  1  0
 25 26  2  0
 26 27  1  0
 27 28  2  0
 28 29  1  0
 28 30  1  0
 30 31  2  0
 23 32  1  0
 32 33  2  0
 32 34  1  0
 19 35  1  0
 35 36  1  0
 35 37  1  0
  9 38  1  0
 38 39  1  0
 38 40  1  0
 31 25  1  0
  1 41  1  0
  1 42  1  0
  1 43  1  0
  2 44  1  0
  3 45  1  0
  3 46  1  0
  3 47  1  0
  4 48  1  6
  5 49  1  0
  5 50  1  0
  8 51  1  0
  9 52  1  1
 12 53  1  0
 13 54  1  6
 14 55  1  0
 14 56  1  0
 15 57  1  0
 18 58  1  0
 19 59  1  1
 22 60  1  0
 23 61  1  6
 24 62  1  0
 24 63  1  0
 26 64  1  0
 27 65  1  0
 29 66  1  0
 30 67  1  0
 31 68  1  0
 34 69  1  0
 35 70  1  1
 36 71  1  0
 36 72  1  0
 36 73  1  0
 37 74  1  0
 38 75  1  0
 39 76  1  0
 39 77  1  0
 39 78  1  0
 40 79  1  0
 40 80  1  0
 40 81  1  0
M  END
$$$$
VVCTY.sdf
     RDKit          3D

 81 81  0  0  0  0  0  0  0  0999 V2000
    7.7269   -2.3443   -2.3485 C   0  0  0  0  0  0  0  0  0  0  0  0
    7.5717   -0.8715   -1.9528 C   0  0  0  0  0  0  0  0  0  0  0  0
    6.3891   -0.2599   -2.7101 C   0  0  0  0  0  0  0  0  0  0  0  0
    7.4693   -0.6389   -0.4268 C   0  0  2  0  0  0  0  0  0  0  0  0
    8.7168   -1.0503    0.2577 N   0  0  0  0  0  0  0  0  0  0  0  0
    6.2770   -1.3815    0.2263 C   0  0  0  0  0  0  0  0  0  0  0  0
    6.3842   -2.5128    0.6973 O   0  0  0  0  0  0  0  0  0  0  0  0
    5.1065   -0.6644    0.2612 N   0  0  0  0  0  0  0  0  0  0  0  0
    3.8443   -1.2419    0.7150 C   0  0  2  0  0  0  0  0  0  0  0  0
    2.7674   -0.8527   -0.3224 C   0  0  0  0  0  0  0  0  0  0  0  0
    2.9474    0.0463   -1.1446 O   0  0  0  0  0  0  0  0  0  0  0  0
    1.5988   -1.5794   -0.2486 N   0  0  0  0  0  0  0  0  0  0  0  0
    0.3916   -1.1125   -0.9360 C   0  0  1  0  0  0  0  0  0  0  0  0
   -0.4495   -2.2662   -1.4994 C   0  0  0  0  0  0  0  0  0  0  0  0
   -0.7825   -3.6141   -0.3104 S   0  0  0  0  0  0  0  0  0  0  0  0
   -0.4192   -0.2551    0.0560 C   0  0  0  0  0  0  0  0  0  0  0  0
   -0.2347   -0.3039    1.2727 O   0  0  0  0  0  0  0  0  0  0  0  0
   -1.3603    0.5659   -0.5175 N   0  0  0  0  0  0  0  0  0  0  0  0
   -2.4026    1.1922    0.2913 C   0  0  2  0  0  0  0  0  0  0  0  0
   -3.5934    0.2136    0.3705 C   0  0  0  0  0  0  0  0  0  0  0  0
   -3.7559   -0.7050   -0.4315 O   0  0  0  0  0  0  0  0  0  0  0  0
   -4.4857    0.4844    1.3911 N   0  0  0  0  0  0  0  0  0  0  0  0
   -5.6773   -0.3479    1.6118 C   0  0  1  0  0  0  0  0  0  0  0  0
   -6.6226   -0.4602    0.4004 C   0  0  0  0  0  0  0  0  0  0  0  0
   -7.0534    0.8838   -0.1485 C   0  0  0  0  0  0  0  0  0  0  0  0
   -6.4950    1.3707   -1.3390 C   0  0  0  0  0  0  0  0  0  0  0  0
   -6.8677    2.6195   -1.8365 C   0  0  0  0  0  0  0  0  0  0  0  0
   -7.8004    3.3835   -1.1474 C   0  0  0  0  0  0  0  0  0  0  0  0
   -8.1323    4.5999   -1.6662 O   0  0  0  0  0  0  0  0  0  0  0  0
   -8.3721    2.9175    0.0321 C   0  0  0  0  0  0  0  0  0  0  0  0
   -7.9981    1.6670    0.5308 C   0  0  0  0  0  0  0  0  0  0  0  0
   -5.2443   -1.6997    2.1867 C   0  0  0  0  0  0  0  0  0  0  0  0
   -4.2999   -1.8734    2.9454 O   0  0  0  0  0  0  0  0  0  0  0  0
   -6.0458   -2.7334    1.8699 O   0  0  0  0  0  0  0  0  0  0  0  0
   -2.8743    2.5223   -0.3316 C   0  0  1  0  0  0  0  0  0  0  0  0
   -1.8499    3.6318   -0.1210 C   0  0  0  0  0  0  0  0  0  0  0  0
   -3.0732    2.3617   -1.7440 O   0  0  0  0  0  0  0  0  0  0  0  0
    3.4565   -0.7852    2.1402 C   0  0  0  0  0  0  0  0  0  0  0  0
    3.3704    0.7389    2.2771 C   0  0  0  0  0  0  0  0  0  0  0  0
    4.4192   -1.3473    3.1900 C   0  0  0  0  0  0  0  0  0  0  0  0
    7.8395   -2.4385   -3.4343 H   0  0  0  0  0  0  0  0  0  0  0  0
    6.8536   -2.9357   -2.0552 H   0  0  0  0  0  0  0  0  0  0  0  0
    8.6143   -2.7929   -1.8918 H   0  0  0  0  0  0  0  0  0  0  0  0
    8.4718   -0.3465   -2.3028 H   0  0  0  0  0  0  0  0  0  0  0  0
    5.4590   -0.8043   -2.5194 H   0  0  0  0  0  0  0  0  0  0  0  0
    6.5701   -0.2898   -3.7903 H   0  0  0  0  0  0  0  0  0  0  0  0
    6.2422    0.7880   -2.4288 H   0  0  0  0  0  0  0  0  0  0  0  0
    7.3473    0.4349   -0.2375 H   0  0  0  0  0  0  0  0  0  0  0  0
    8.6189   -0.8305    1.2505 H   0  0  0  0  0  0  0  0  0  0  0  0
    8.7426   -2.0748    0.2449 H   0  0  0  0  0  0  0  0  0  0  0  0
    5.0267    0.1850   -0.2907 H   0  0  0  0  0  0  0  0  0  0  0  0
    3.9283   -2.3358    0.6902 H   0  0  0  0  0  0  0  0  0  0  0  0
    1.4091   -2.0413    0.6357 H   0  0  0  0  0  0  0  0  0  0  0  0
    0.6817   -0.4572   -1.7664 H   0  0  0  0  0  0  0  0  0  0  0  0
   -1.4123   -1.9030   -1.8718 H   0  0  0  0  0  0  0  0  0  0  0  0
    0.0801   -2.7195   -2.3444 H   0  0  0  0  0  0  0  0  0  0  0  0
    0.4766   -4.0725   -0.2505 H   0  0  0  0  0  0  0  0  0  0  0  0
   -1.6308    0.4221   -1.4850 H   0  0  0  0  0  0  0  0  0  0  0  0
   -2.0335    1.3541    1.3110 H   0  0  0  0  0  0  0  0  0  0  0  0
   -4.0947    0.9159    2.2199 H   0  0  0  0  0  0  0  0  0  0  0  0
   -6.2239    0.1496    2.4238 H   0  0  0  0  0  0  0  0  0  0  0  0
   -7.5294   -1.0090    0.6890 H   0  0  0  0  0  0  0  0  0  0  0  0
   -6.1764   -1.0635   -0.3990 H   0  0  0  0  0  0  0  0  0  0  0  0
   -5.7591    0.7804   -1.8834 H   0  0  0  0  0  0  0  0  0  0  0  0
   -6.4349    2.9895   -2.7611 H   0  0  0  0  0  0  0  0  0  0  0  0
   -8.8413    4.9837   -1.1246 H   0  0  0  0  0  0  0  0  0  0  0  0
   -9.1046    3.5075    0.5736 H   0  0  0  0  0  0  0  0  0  0  0  0
   -8.4516    1.3065    1.4512 H   0  0  0  0  0  0  0  0  0  0  0  0
   -5.6025   -3.5071    2.2797 H   0  0  0  0  0  0  0  0  0  0  0  0
   -3.8305    2.8320    0.1054 H   0  0  0  0  0  0  0  0  0  0  0  0
   -0.9009    3.3946   -0.6139 H   0  0  0  0  0  0  0  0  0  0  0  0
   -1.6619    3.8021    0.9433 H   0  0  0  0  0  0  0  0  0  0  0  0
   -2.2060    4.5680   -0.5644 H   0  0  0  0  0  0  0  0  0  0  0  0
   -3.4893    3.1803   -2.0695 H   0  0  0  0  0  0  0  0  0  0  0  0
    2.4621   -1.1857    2.3744 H   0  0  0  0  0  0  0  0  0  0  0  0
    3.0463    1.0151    3.2864 H   0  0  0  0  0  0  0  0  0  0  0  0
    4.3388    1.2173    2.0973 H   0  0  0  0  0  0  0  0  0  0  0  0
    2.6449    1.1607    1.5744 H   0  0  0  0  0  0  0  0  0  0  0  0
    5.4271   -0.9345    3.0786 H   0  0  0  0  0  0  0  0  0  0  0  0
    4.0713   -1.1047    4.2000 H   0  0  0  0  0  0  0  0  0  0  0  0
    4.4843   -2.4377    3.1147 H   0  0  0  0  0  0  0  0  0  0  0  0
  1  2  1  0
  2  3  1  0
  2  4  1  0
  4  5  1  0
  4  6  1  0
  6  7  2  0
  6  8  1  0
  8  9  1  0
  9 10  1  0
 10 11  2  0
 10 12  1  0
 12 13  1  0
 13 14  1  0
 14 15  1  0
 13 16  1  0
 16 17  2  0
 16 18  1  0
 18 19  1  0
 19 20  1  0
 20 21  2  0
 20 22  1  0
 22 23  1  0
 23 24  1  0
 24 25  1  0
 25 26  2  0
 26 27  1  0
 27 28  2  0
 28 29  1  0
 28 30  1  0
 30 31  2  0
 23 32  1  0
 32 33  2  0
 32 34  1  0
 19 35  1  0
 35 36  1  0
 35 37  1  0
  9 38  1  0
 38 39  1  0
 38 40  1  0
 31 25  1  0
  1 41  1  0
  1 42  1  0
  1 43  1  0
  2 44  1  0
  3 45  1  0
  3 46  1  0
  3 47  1  0
  4 48  1  6
  5 49  1  0
  5 50  1  0
  8 51  1  0
  9 52  1  1
 12 53  1  0
 13 54  1  6
 14 55  1  0
 14 56  1  0
 15 57  1  0
 18 58  1  0
 19 59  1  1
 22 60  1  0
 23 61  1  1
 24 62  1  0
 24 63  1  0
 26 64  1  0
 27 65  1  0
 29 66  1  0
 30 67  1  0
 31 68  1  0
 34 69  1  0
 35 70  1  1
 36 71  1  0
 36 72  1  0
 36 73  1  0
 37 74  1  0
 38 75  1  0
 39 76  1  0
 39 77  1  0
 39 78  1  0
 40 79  1  0
 40 80  1  0
 40 81  1  0
M  END
$$$$
VVCTY.sdf
     RDKit          3D

 81 81  0  0  0  0  0  0  0  0999 V2000
    5.4556   -1.3079   -4.5408 C   0  0  0  0  0  0  0  0  0  0  0  0
    5.0407   -1.8315   -3.1622 C   0  0  0  0  0  0  0  0  0  0  0  0
    5.7606   -3.1529   -2.8720 C   0  0  0  0  0  0  0  0  0  0  0  0
    5.2507   -0.7680   -2.0592 C   0  0  2  0  0  0  0  0  0  0  0  0
    6.6694   -0.4164   -1.8035 N   0  0  0  0  0  0  0  0  0  0  0  0
    4.5562   -1.1719   -0.7325 C   0  0  0  0  0  0  0  0  0  0  0  0
    3.5039   -1.8029   -0.6757 O   0  0  0  0  0  0  0  0  0  0  0  0
    5.1823   -0.6753    0.3888 N   0  0  0  0  0  0  0  0  0  0  0  0
    4.5963   -0.7779    1.7209 C   0  0  2  0  0  0  0  0  0  0  0  0
    3.5377    0.3445    1.7956 C   0  0  0  0  0  0  0  0  0  0  0  0
    3.7959    1.5009    2.1223 O   0  0  0  0  0  0  0  0  0  0  0  0
    2.2908   -0.0345    1.3515 N   0  0  0  0  0  0  0  0  0  0  0  0
    1.1978    0.9201    1.1948 C   0  0  1  0  0  0  0  0  0  0  0  0
    1.3418    1.7633   -0.0820 C   0  0  0  0  0  0  0  0  0  0  0  0
    1.2483    0.8063   -1.6369 S   0  0  0  0  0  0  0  0  0  0  0  0
   -0.1486    0.1732    1.2611 C   0  0  0  0  0  0  0  0  0  0  0  0
   -0.2285   -1.0544    1.2479 O   0  0  0  0  0  0  0  0  0  0  0  0
   -1.2581    0.9784    1.3591 N   0  0  0  0  0  0  0  0  0  0  0  0
   -2.6189    0.4435    1.2653 C   0  0  2  0  0  0  0  0  0  0  0  0
   -3.5476    1.6380    0.9602 C   0  0  0  0  0  0  0  0  0  0  0  0
   -3.1070    2.7775    0.7950 O   0  0  0  0  0  0  0  0  0  0  0  0
   -4.8774    1.3345    0.8386 N   0  0  0  0  0  0  0  0  0  0  0  0
   -5.8986    2.3391    0.5472 C   0  0  1  0  0  0  0  0  0  0  0  0
   -5.9607    2.7107   -0.9442 C   0  0  0  0  0  0  0  0  0  0  0  0
   -6.3142    1.5654   -1.8689 C   0  0  0  0  0  0  0  0  0  0  0  0
   -5.3145    0.7113   -2.3561 C   0  0  0  0  0  0  0  0  0  0  0  0
   -5.6414   -0.3541   -3.1958 C   0  0  0  0  0  0  0  0  0  0  0  0
   -6.9663   -0.5676   -3.5533 C   0  0  0  0  0  0  0  0  0  0  0  0
   -7.2414   -1.6197   -4.3757 O   0  0  0  0  0  0  0  0  0  0  0  0
   -7.9735    0.2700   -3.0862 C   0  0  0  0  0  0  0  0  0  0  0  0
   -7.6461    1.3364   -2.2452 C   0  0  0  0  0  0  0  0  0  0  0  0
   -7.2470    1.8634    1.0851 C   0  0  0  0  0  0  0  0  0  0  0  0
   -7.4680    0.8142    1.6719 O   0  0  0  0  0  0  0  0  0  0  0  0
   -8.2421    2.7590    0.9146 O   0  0  0  0  0  0  0  0  0  0  0  0
   -3.0532   -0.3493    2.5168 C   0  0  1  0  0  0  0  0  0  0  0  0
   -3.1578    0.5010    3.7788 C   0  0  0  0  0  0  0  0  0  0  0  0
   -4.3206   -0.9770    2.2760 O   0  0  0  0  0  0  0  0  0  0  0  0
    5.6722   -0.6317    2.8180 C   0  0  0  0  0  0  0  0  0  0  0  0
    5.0562   -0.7664    4.2156 C   0  0  0  0  0  0  0  0  0  0  0  0
    6.7787   -1.6818    2.6586 C   0  0  0  0  0  0  0  0  0  0  0  0
    4.9443   -0.3671   -4.7702 H   0  0  0  0  0  0  0  0  0  0  0  0
    6.5347   -1.1358   -4.6047 H   0  0  0  0  0  0  0  0  0  0  0  0
    5.1887   -2.0290   -5.3211 H   0  0  0  0  0  0  0  0  0  0  0  0
    3.9666   -2.0546   -3.2158 H   0  0  0  0  0  0  0  0  0  0  0  0
    5.4772   -3.5552   -1.8944 H   0  0  0  0  0  0  0  0  0  0  0  0
    5.4971   -3.9037   -3.6252 H   0  0  0  0  0  0  0  0  0  0  0  0
    6.8490   -3.0364   -2.8916 H   0  0  0  0  0  0  0  0  0  0  0  0
    4.7479    0.1577   -2.3684 H   0  0  0  0  0  0  0  0  0  0  0  0
    7.1662   -1.2594   -1.5115 H   0  0  0  0  0  0  0  0  0  0  0  0
    7.1026   -0.1310   -2.6815 H   0  0  0  0  0  0  0  0  0  0  0  0
    5.8951    0.0281    0.2019 H   0  0  0  0  0  0  0  0  0  0  0  0
    4.0964   -1.7504    1.8135 H   0  0  0  0  0  0  0  0  0  0  0  0
    2.1829   -0.9474    0.9065 H   0  0  0  0  0  0  0  0  0  0  0  0
    1.2326    1.5942    2.0606 H   0  0  0  0  0  0  0  0  0  0  0  0
    2.3069    2.2808   -0.0827 H   0  0  0  0  0  0  0  0  0  0  0  0
    0.5640    2.5321   -0.1281 H   0  0  0  0  0  0  0  0  0  0  0  0
    2.0408   -0.2082   -1.2489 H   0  0  0  0  0  0  0  0  0  0  0  0
   -1.1795    1.9833    1.2221 H   0  0  0  0  0  0  0  0  0  0  0  0
   -2.6573   -0.2133    0.3862 H   0  0  0  0  0  0  0  0  0  0  0  0
   -5.1863    0.3964    1.1120 H   0  0  0  0  0  0  0  0  0  0  0  0
   -5.6340    3.2353    1.1230 H   0  0  0  0  0  0  0  0  0  0  0  0
   -4.9951    3.1252   -1.2626 H   0  0  0  0  0  0  0  0  0  0  0  0
   -6.6859    3.5210   -1.0956 H   0  0  0  0  0  0  0  0  0  0  0  0
   -4.2726    0.8706   -2.0871 H   0  0  0  0  0  0  0  0  0  0  0  0
   -4.8637   -1.0141   -3.5696 H   0  0  0  0  0  0  0  0  0  0  0  0
   -8.1991   -1.6476   -4.5318 H   0  0  0  0  0  0  0  0  0  0  0  0
   -9.0104    0.1120   -3.3643 H   0  0  0  0  0  0  0  0  0  0  0  0
   -8.4390    1.9906   -1.8891 H   0  0  0  0  0  0  0  0  0  0  0  0
   -9.0150    2.3288    1.3389 H   0  0  0  0  0  0  0  0  0  0  0  0
   -2.3360   -1.1566    2.7010 H   0  0  0  0  0  0  0  0  0  0  0  0
   -3.9451    1.2567    3.6905 H   0  0  0  0  0  0  0  0  0  0  0  0
   -3.4313   -0.1269    4.6340 H   0  0  0  0  0  0  0  0  0  0  0  0
   -2.2118    0.9998    4.0087 H   0  0  0  0  0  0  0  0  0  0  0  0
   -4.4783   -1.5979    3.0112 H   0  0  0  0  0  0  0  0  0  0  0  0
    6.1389    0.3595    2.7459 H   0  0  0  0  0  0  0  0  0  0  0  0
    4.5644   -1.7373    4.3396 H   0  0  0  0  0  0  0  0  0  0  0  0
    4.3143    0.0154    4.4048 H   0  0  0  0  0  0  0  0  0  0  0  0
    5.8269   -0.6777    4.9890 H   0  0  0  0  0  0  0  0  0  0  0  0
    7.5181   -1.5916    3.4617 H   0  0  0  0  0  0  0  0  0  0  0  0
    7.3124   -1.5589    1.7107 H   0  0  0  0  0  0  0  0  0  0  0  0
    6.3686   -2.6971    2.6893 H   0  0  0  0  0  0  0  0  0  0  0  0
  1  2  1  0
  2  3  1  0
  2  4  1  0
  4  5  1  0
  4  6  1  0
  6  7  2  0
  6  8  1  0
  8  9  1  0
  9 10  1  0
 10 11  2  0
 10 12  1  0
 12 13  1  0
 13 14  1  0
 14 15  1  0
 13 16  1  0
 16 17  2  0
 16 18  1  0
 18 19  1  0
 19 20  1  0
 20 21  2  0
 20 22  1  0
 22 23  1  0
 23 24  1  0
 24 25  1  0
 25 26  2  0
 26 27  1  0
 27 28  2  0
 28 29  1  0
 28 30  1  0
 30 31  2  0
 23 32  1  0
 32 33  2  0
 32 34  1  0
 19 35  1  0
 35 36  1  0
 35 37  1  0
  9 38  1  0
 38 39  1  0
 38 40  1  0
 31 25  1  0
  1 41  1  0
  1 42  1  0
  1 43  1  0
  2 44  1  0
  3 45  1  0
  3 46  1  0
  3 47  1  0
  4 48  1  6
  5 49  1  0
  5 50  1  0
  8 51  1  0
  9 52  1  6
 12 53  1  0
 13 54  1  1
 14 55  1  0
 14 56  1  0
 15 57  1  0
 18 58  1  0
 19 59  1  6
 22 60  1  0
 23 61  1  1
 24 62  1  0
 24 63  1  0
 26 64  1  0
 27 65  1  0
 29 66  1  0
 30 67  1  0
 31 68  1  0
 34 69  1  0
 35 70  1  1
 36 71  1  0
 36 72  1  0
 36 73  1  0
 37 74  1  0
 38 75  1  0
 39 76  1  0
 39 77  1  0
 39 78  1  0
 40 79  1  0
 40 80  1  0
 40 81  1  0
M  END
$$$$
VVCTY.sdf
     RDKit          3D

 81 81  0  0  0  0  0  0  0  0999 V2000
    9.5783   -0.7950   -2.4025 C   0  0  0  0  0  0  0  0  0  0  0  0
    8.2822   -1.4617   -1.9287 C   0  0  0  0  0  0  0  0  0  0  0  0
    8.5585   -2.2747   -0.6588 C   0  0  0  0  0  0  0  0  0  0  0  0
    7.1432   -0.4289   -1.7747 C   0  0  2  0  0  0  0  0  0  0  0  0
    7.3517    0.5152   -0.6452 N   0  0  0  0  0  0  0  0  0  0  0  0
    5.7761   -1.1301   -1.6106 C   0  0  0  0  0  0  0  0  0  0  0  0
    5.1083   -1.5237   -2.5620 O   0  0  0  0  0  0  0  0  0  0  0  0
    5.3955   -1.2789   -0.2913 N   0  0  0  0  0  0  0  0  0  0  0  0
    4.0105   -1.5659    0.0433 C   0  0  2  0  0  0  0  0  0  0  0  0
    3.2277   -0.2317    0.0425 C   0  0  0  0  0  0  0  0  0  0  0  0
    3.7713    0.8701    0.1207 O   0  0  0  0  0  0  0  0  0  0  0  0
    1.8635   -0.3700   -0.0270 N   0  0  0  0  0  0  0  0  0  0  0  0
    0.9566    0.7762   -0.0290 C   0  0  1  0  0  0  0  0  0  0  0  0
    0.9946    1.5795   -1.3386 C   0  0  0  0  0  0  0  0  0  0  0  0
    0.6249    0.5900   -2.8290 S   0  0  0  0  0  0  0  0  0  0  0  0
   -0.4579    0.2652    0.2991 C   0  0  0  0  0  0  0  0  0  0  0  0
   -0.7229   -0.9359    0.3974 O   0  0  0  0  0  0  0  0  0  0  0  0
   -1.4094    1.2301    0.5074 N   0  0  0  0  0  0  0  0  0  0  0  0
   -2.8032    0.9008    0.8295 C   0  0  2  0  0  0  0  0  0  0  0  0
   -3.6185    2.1454    0.4392 C   0  0  0  0  0  0  0  0  0  0  0  0
   -3.1430    3.2796    0.5051 O   0  0  0  0  0  0  0  0  0  0  0  0
   -4.9011    1.9019    0.0036 N   0  0  0  0  0  0  0  0  0  0  0  0
   -5.8337    3.0095   -0.2394 C   0  0  1  0  0  0  0  0  0  0  0  0
   -6.8859    2.6646   -1.3063 C   0  0  0  0  0  0  0  0  0  0  0  0
   -7.6564    1.3878   -1.0457 C   0  0  0  0  0  0  0  0  0  0  0  0
   -8.7871    1.3884   -0.2162 C   0  0  0  0  0  0  0  0  0  0  0  0
   -9.4733    0.2008    0.0487 C   0  0  0  0  0  0  0  0  0  0  0  0
   -9.0302   -0.9880   -0.5204 C   0  0  0  0  0  0  0  0  0  0  0  0
   -9.6675   -2.1698   -0.2863 O   0  0  0  0  0  0  0  0  0  0  0  0
   -7.9180   -1.0072   -1.3518 C   0  0  0  0  0  0  0  0  0  0  0  0
   -7.2322    0.1783   -1.6168 C   0  0  0  0  0  0  0  0  0  0  0  0
   -6.4881    3.4282    1.0785 C   0  0  0  0  0  0  0  0  0  0  0  0
   -6.4490    2.8237    2.1397 O   0  0  0  0  0  0  0  0  0  0  0  0
   -7.1629    4.5931    0.9875 O   0  0  0  0  0  0  0  0  0  0  0  0
   -2.9949    0.5579    2.3274 C   0  0  1  0  0  0  0  0  0  0  0  0
   -4.3102   -0.1605    2.6059 C   0  0  0  0  0  0  0  0  0  0  0  0
   -1.9511   -0.2954    2.8218 O   0  0  0  0  0  0  0  0  0  0  0  0
    3.8609   -2.3071    1.3898 C   0  0  0  0  0  0  0  0  0  0  0  0
    4.4580   -3.7151    1.3056 C   0  0  0  0  0  0  0  0  0  0  0  0
    4.4768   -1.5509    2.5716 C   0  0  0  0  0  0  0  0  0  0  0  0
    9.4084   -0.2197   -3.3186 H   0  0  0  0  0  0  0  0  0  0  0  0
    9.9893   -0.1196   -1.6453 H   0  0  0  0  0  0  0  0  0  0  0  0
   10.3409   -1.5500   -2.6228 H   0  0  0  0  0  0  0  0  0  0  0  0
    7.9818   -2.1760   -2.7074 H   0  0  0  0  0  0  0  0  0  0  0  0
    7.6761   -2.8418   -0.3485 H   0  0  0  0  0  0  0  0  0  0  0  0
    8.8678   -1.6360    0.1748 H   0  0  0  0  0  0  0  0  0  0  0  0
    9.3612   -2.9994   -0.8355 H   0  0  0  0  0  0  0  0  0  0  0  0
    7.0674    0.1725   -2.6897 H   0  0  0  0  0  0  0  0  0  0  0  0
    8.2096    1.0403   -0.8123 H   0  0  0  0  0  0  0  0  0  0  0  0
    6.5994    1.2112   -0.6730 H   0  0  0  0  0  0  0  0  0  0  0  0
    5.9083   -0.6453    0.3217 H   0  0  0  0  0  0  0  0  0  0  0  0
    3.5833   -2.1855   -0.7561 H   0  0  0  0  0  0  0  0  0  0  0  0
    1.4352   -1.2891   -0.1032 H   0  0  0  0  0  0  0  0  0  0  0  0
    1.2635    1.4316    0.7962 H   0  0  0  0  0  0  0  0  0  0  0  0
    0.2752    2.4039   -1.3061 H   0  0  0  0  0  0  0  0  0  0  0  0
    1.9854    2.0216   -1.4846 H   0  0  0  0  0  0  0  0  0  0  0  0
    1.7203   -0.1848   -2.7654 H   0  0  0  0  0  0  0  0  0  0  0  0
   -1.1547    2.2116    0.5792 H   0  0  0  0  0  0  0  0  0  0  0  0
   -3.0910    0.0521    0.1975 H   0  0  0  0  0  0  0  0  0  0  0  0
   -5.3237    1.0113    0.2424 H   0  0  0  0  0  0  0  0  0  0  0  0
   -5.2496    3.8715   -0.5850 H   0  0  0  0  0  0  0  0  0  0  0  0
   -6.3850    2.5735   -2.2796 H   0  0  0  0  0  0  0  0  0  0  0  0
   -7.6004    3.4899   -1.4209 H   0  0  0  0  0  0  0  0  0  0  0  0
   -9.1459    2.3133    0.2305 H   0  0  0  0  0  0  0  0  0  0  0  0
  -10.3443    0.2238    0.6962 H   0  0  0  0  0  0  0  0  0  0  0  0
  -10.4261   -2.0046    0.2972 H   0  0  0  0  0  0  0  0  0  0  0  0
   -7.5882   -1.9428   -1.7953 H   0  0  0  0  0  0  0  0  0  0  0  0
   -6.3647    0.1494   -2.2735 H   0  0  0  0  0  0  0  0  0  0  0  0
   -7.4740    4.7615    1.9027 H   0  0  0  0  0  0  0  0  0  0  0  0
   -2.9556    1.4731    2.9295 H   0  0  0  0  0  0  0  0  0  0  0  0
   -4.3872   -1.0782    2.0124 H   0  0  0  0  0  0  0  0  0  0  0  0
   -4.3635   -0.4636    3.6576 H   0  0  0  0  0  0  0  0  0  0  0  0
   -5.1761    0.4686    2.3926 H   0  0  0  0  0  0  0  0  0  0  0  0
   -1.6865   -0.8988    2.0962 H   0  0  0  0  0  0  0  0  0  0  0  0
    2.7899   -2.4216    1.6029 H   0  0  0  0  0  0  0  0  0  0  0  0
    4.0028   -4.2823    0.4868 H   0  0  0  0  0  0  0  0  0  0  0  0
    4.2766   -4.2678    2.2337 H   0  0  0  0  0  0  0  0  0  0  0  0
    5.5399   -3.6857    1.1395 H   0  0  0  0  0  0  0  0  0  0  0  0
    4.2855   -2.0859    3.5084 H   0  0  0  0  0  0  0  0  0  0  0  0
    4.0450   -0.5504    2.6727 H   0  0  0  0  0  0  0  0  0  0  0  0
    5.5617   -1.4473    2.4674 H   0  0  0  0  0  0  0  0  0  0  0  0
  1  2  1  0
  2  3  1  0
  2  4  1  0
  4  5  1  0
  4  6  1  0
  6  7  2  0
  6  8  1  0
  8  9  1  0
  9 10  1  0
 10 11  2  0
 10 12  1  0
 12 13  1  0
 13 14  1  0
 14 15  1  0
 13 16  1  0
 16 17  2  0
 16 18  1  0
 18 19  1  0
 19 20  1  0
 20 21  2  0
 20 22  1  0
 22 23  1  0
 23 24  1  0
 24 25  1  0
 25 26  2  0
 26 27  1  0
 27 28  2  0
 28 29  1  0
 28 30  1  0
 30 31  2  0
 23 32  1  0
 32 33  2  0
 32 34  1  0
 19 35  1  0
 35 36  1  0
 35 37  1  0
  9 38  1  0
 38 39  1  0
 38 40  1  0
 31 25  1  0
  1 41  1  0
  1 42  1  0
  1 43  1  0
  2 44  1  0
  3 45  1  0
  3 46  1  0
  3 47  1  0
  4 48  1  6
  5 49  1  0
  5 50  1  0
  8 51  1  0
  9 52  1  6
 12 53  1  0
 13 54  1  1
 14 55  1  0
 14 56  1  0
 15 57  1  0
 18 58  1  0
 19 59  1  6
 22 60  1  0
 23 61  1  6
 24 62  1  0
 24 63  1  0
 26 64  1  0
 27 65  1  0
 29 66  1  0
 30 67  1  0
 31 68  1  0
 34 69  1  0
 35 70  1  1
 36 71  1  0
 36 72  1  0
 36 73  1  0
 37 74  1  0
 38 75  1  0
 39 76  1  0
 39 77  1  0
 39 78  1  0
 40 79  1  0
 40 80  1  0
 40 81  1  0
M  END
$$$$
VVCTY.sdf
     RDKit          3D

 81 81  0  0  0  0  0  0  0  0999 V2000
    8.4212    0.7410   -1.4538 C   0  0  0  0  0  0  0  0  0  0  0  0
    7.3546   -0.3027   -1.0965 C   0  0  0  0  0  0  0  0  0  0  0  0
    8.0035   -1.6928   -1.0913 C   0  0  0  0  0  0  0  0  0  0  0  0
    6.1568   -0.2526   -2.0750 C   0  0  2  0  0  0  0  0  0  0  0  0
    5.5332    1.0889   -2.1089 N   0  0  0  0  0  0  0  0  0  0  0  0
    5.0520   -1.2869   -1.7489 C   0  0  0  0  0  0  0  0  0  0  0  0
    4.5701   -2.0240   -2.6054 O   0  0  0  0  0  0  0  0  0  0  0  0
    4.6058   -1.2617   -0.4426 N   0  0  0  0  0  0  0  0  0  0  0  0
    3.3633   -1.9392   -0.0710 C   0  0  2  0  0  0  0  0  0  0  0  0
    2.2677   -0.8683   -0.2850 C   0  0  0  0  0  0  0  0  0  0  0  0
    2.4696    0.3276   -0.0650 O   0  0  0  0  0  0  0  0  0  0  0  0
    1.0615   -1.3410   -0.7463 N   0  0  0  0  0  0  0  0  0  0  0  0
   -0.0808   -0.4475   -0.9211 C   0  0  1  0  0  0  0  0  0  0  0  0
   -1.0260   -0.9307   -2.0305 C   0  0  0  0  0  0  0  0  0  0  0  0
   -1.6446   -2.6403   -1.7968 S   0  0  0  0  0  0  0  0  0  0  0  0
   -0.8498   -0.2802    0.4043 C   0  0  0  0  0  0  0  0  0  0  0  0
   -0.7710   -1.0772    1.3385 O   0  0  0  0  0  0  0  0  0  0  0  0
   -1.6904    0.8005    0.4562 N   0  0  0  0  0  0  0  0  0  0  0  0
   -2.5711    1.0912    1.5991 C   0  0  2  0  0  0  0  0  0  0  0  0
   -3.5824    2.1139    1.0645 C   0  0  0  0  0  0  0  0  0  0  0  0
   -3.2744    2.9335    0.1990 O   0  0  0  0  0  0  0  0  0  0  0  0
   -4.8430    2.0264    1.6039 N   0  0  0  0  0  0  0  0  0  0  0  0
   -5.9761    2.7788    1.0562 C   0  0  1  0  0  0  0  0  0  0  0  0
   -6.8937    1.8878    0.2018 C   0  0  0  0  0  0  0  0  0  0  0  0
   -6.1795    1.1524   -0.9103 C   0  0  0  0  0  0  0  0  0  0  0  0
   -5.6603    1.8504   -2.0092 C   0  0  0  0  0  0  0  0  0  0  0  0
   -4.9671    1.1721   -3.0129 C   0  0  0  0  0  0  0  0  0  0  0  0
   -4.7941   -0.2032   -2.9237 C   0  0  0  0  0  0  0  0  0  0  0  0
   -4.0905   -0.8209   -3.9148 O   0  0  0  0  0  0  0  0  0  0  0  0
   -5.3105   -0.9172   -1.8486 C   0  0  0  0  0  0  0  0  0  0  0  0
   -6.0030   -0.2386   -0.8431 C   0  0  0  0  0  0  0  0  0  0  0  0
   -6.7814    3.3308    2.2252 C   0  0  0  0  0  0  0  0  0  0  0  0
   -6.7942    2.8852    3.3635 O   0  0  0  0  0  0  0  0  0  0  0  0
   -7.5536    4.3827    1.8909 O   0  0  0  0  0  0  0  0  0  0  0  0
   -1.7767    1.5879    2.8272 C   0  0  1  0  0  0  0  0  0  0  0  0
   -2.5939    2.3867    3.8358 C   0  0  0  0  0  0  0  0  0  0  0  0
   -1.2482    0.4663    3.5534 O   0  0  0  0  0  0  0  0  0  0  0  0
    3.4148   -2.4263    1.3930 C   0  0  0  0  0  0  0  0  0  0  0  0
    4.6508   -3.3006    1.6455 C   0  0  0  0  0  0  0  0  0  0  0  0
    2.1651   -3.2245    1.7741 C   0  0  0  0  0  0  0  0  0  0  0  0
    9.2791    0.6663   -0.7766 H   0  0  0  0  0  0  0  0  0  0  0  0
    8.0290    1.7593   -1.3680 H   0  0  0  0  0  0  0  0  0  0  0  0
    8.7862    0.6004   -2.4769 H   0  0  0  0  0  0  0  0  0  0  0  0
    7.0142   -0.0903   -0.0750 H   0  0  0  0  0  0  0  0  0  0  0  0
    8.8633   -1.7168   -0.4129 H   0  0  0  0  0  0  0  0  0  0  0  0
    8.3551   -1.9695   -2.0911 H   0  0  0  0  0  0  0  0  0  0  0  0
    7.3022   -2.4618   -0.7530 H   0  0  0  0  0  0  0  0  0  0  0  0
    6.5187   -0.4788   -3.0861 H   0  0  0  0  0  0  0  0  0  0  0  0
    5.0403    1.2743   -1.2355 H   0  0  0  0  0  0  0  0  0  0  0  0
    4.8051    1.0819   -2.8265 H   0  0  0  0  0  0  0  0  0  0  0  0
    4.7974   -0.4116    0.0751 H   0  0  0  0  0  0  0  0  0  0  0  0
    3.1885   -2.7801   -0.7523 H   0  0  0  0  0  0  0  0  0  0  0  0
    0.8610   -2.3316   -0.6609 H   0  0  0  0  0  0  0  0  0  0  0  0
    0.3013    0.5428   -1.1999 H   0  0  0  0  0  0  0  0  0  0  0  0
   -1.8920   -0.2680   -2.1118 H   0  0  0  0  0  0  0  0  0  0  0  0
   -0.5031   -0.9117   -2.9927 H   0  0  0  0  0  0  0  0  0  0  0  0
   -2.1862   -2.4517   -0.5819 H   0  0  0  0  0  0  0  0  0  0  0  0
   -1.6630    1.5135   -0.2709 H   0  0  0  0  0  0  0  0  0  0  0  0
   -3.0934    0.1563    1.8383 H   0  0  0  0  0  0  0  0  0  0  0  0
   -5.0337    1.3869    2.3689 H   0  0  0  0  0  0  0  0  0  0  0  0
   -5.5901    3.6226    0.4735 H   0  0  0  0  0  0  0  0  0  0  0  0
   -7.4025    1.1582    0.8470 H   0  0  0  0  0  0  0  0  0  0  0  0
   -7.6974    2.4924   -0.2392 H   0  0  0  0  0  0  0  0  0  0  0  0
   -5.7760    2.9294   -2.0858 H   0  0  0  0  0  0  0  0  0  0  0  0
   -4.5587    1.7183   -3.8586 H   0  0  0  0  0  0  0  0  0  0  0  0
   -4.0244   -1.7693   -3.7089 H   0  0  0  0  0  0  0  0  0  0  0  0
   -5.1846   -1.9930   -1.7758 H   0  0  0  0  0  0  0  0  0  0  0  0
   -6.4003   -0.8051   -0.0036 H   0  0  0  0  0  0  0  0  0  0  0  0
   -8.0000    4.6389    2.7262 H   0  0  0  0  0  0  0  0  0  0  0  0
   -0.9233    2.1970    2.5065 H   0  0  0  0  0  0  0  0  0  0  0  0
   -1.9823    2.6287    4.7126 H   0  0  0  0  0  0  0  0  0  0  0  0
   -3.4439    1.8022    4.2043 H   0  0  0  0  0  0  0  0  0  0  0  0
   -2.9609    3.3262    3.4129 H   0  0  0  0  0  0  0  0  0  0  0  0
   -0.8734   -0.1641    2.9000 H   0  0  0  0  0  0  0  0  0  0  0  0
    3.4768   -1.5575    2.0618 H   0  0  0  0  0  0  0  0  0  0  0  0
    4.6606   -3.6729    2.6757 H   0  0  0  0  0  0  0  0  0  0  0  0
    4.6676   -4.1652    0.9731 H   0  0  0  0  0  0  0  0  0  0  0  0
    5.5772   -2.7361    1.4985 H   0  0  0  0  0  0  0  0  0  0  0  0
    1.2720   -2.5971    1.7510 H   0  0  0  0  0  0  0  0  0  0  0  0
    2.2504   -3.6209    2.7918 H   0  0  0  0  0  0  0  0  0  0  0  0
    2.0095   -4.0694    1.0949 H   0  0  0  0  0  0  0  0  0  0  0  0
  1  2  1  0
  2  3  1  0
  2  4  1  0
  4  5  1  0
  4  6  1  0
  6  7  2  0
  6  8  1  0
  8  9  1  0
  9 10  1  0
 10 11  2  0
 10 12  1  0
 12 13  1  0
 13 14  1  0
 14 15  1  0
 13 16  1  0
 16 17  2  0
 16 18  1  0
 18 19  1  0
 19 20  1  0
 20 21  2  0
 20 22  1  0
 22 23  1  0
 23 24  1  0
 24 25  1  0
 25 26  2  0
 26 27  1  0
 27 28  2  0
 28 29  1  0
 28 30  1  0
 30 31  2  0
 23 32  1  0
 32 33  2  0
 32 34  1  0
 19 35  1  0
 35 36  1  0
 35 37  1  0
  9 38  1  0
 38 39  1  0
 38 40  1  0
 31 25  1  0
  1 41  1  0
  1 42  1  0
  1 43  1  0
  2 44  1  0
  3 45  1  0
  3 46  1  0
  3 47  1  0
  4 48  1  6
  5 49  1  0
  5 50  1  0
  8 51  1  0
  9 52  1  6
 12 53  1  0
 13 54  1  6
 14 55  1  0
 14 56  1  0
 15 57  1  0
 18 58  1  0
 19 59  1  1
 22 60  1  0
 23 61  1  6
 24 62  1  0
 24 63  1  0
 26 64  1  0
 27 65  1  0
 29 66  1  0
 30 67  1  0
 31 68  1  0
 34 69  1  0
 35 70  1  6
 36 71  1  0
 36 72  1  0
 36 73  1  0
 37 74  1  0
 38 75  1  0
 39 76  1  0
 39 77  1  0
 39 78  1  0
 40 79  1  0
 40 80  1  0
 40 81  1  0
M  END
$$$$
VVCTY.sdf
     RDKit          3D

 81 81  0  0  0  0  0  0  0  0999 V2000
    9.5239   -0.1805   -0.6342 C   0  0  0  0  0  0  0  0  0  0  0  0
    8.1821   -0.8671   -0.9109 C   0  0  0  0  0  0  0  0  0  0  0  0
    8.1243   -2.2057   -0.1666 C   0  0  0  0  0  0  0  0  0  0  0  0
    6.9956    0.0749   -0.5986 C   0  0  2  0  0  0  0  0  0  0  0  0
    6.9014    0.4334    0.8332 N   0  0  0  0  0  0  0  0  0  0  0  0
    5.6729   -0.5168   -1.1422 C   0  0  0  0  0  0  0  0  0  0  0  0
    5.4154   -0.5427   -2.3437 O   0  0  0  0  0  0  0  0  0  0  0  0
    4.8295   -1.0541   -0.1896 N   0  0  0  0  0  0  0  0  0  0  0  0
    3.4602   -1.4302   -0.5451 C   0  0  2  0  0  0  0  0  0  0  0  0
    2.6345   -0.1415   -0.3288 C   0  0  0  0  0  0  0  0  0  0  0  0
    2.8723    0.6446    0.5906 O   0  0  0  0  0  0  0  0  0  0  0  0
    1.6177    0.0657   -1.2306 N   0  0  0  0  0  0  0  0  0  0  0  0
    0.7138    1.2038   -1.0975 C   0  0  1  0  0  0  0  0  0  0  0  0
    0.1221    1.6412   -2.4426 C   0  0  0  0  0  0  0  0  0  0  0  0
   -0.6224    0.2807   -3.4092 S   0  0  0  0  0  0  0  0  0  0  0  0
   -0.3835    0.8789   -0.0631 C   0  0  0  0  0  0  0  0  0  0  0  0
   -0.9004   -0.2321    0.0558 O   0  0  0  0  0  0  0  0  0  0  0  0
   -0.7598    1.9410    0.7346 N   0  0  0  0  0  0  0  0  0  0  0  0
   -1.7624    1.7714    1.8015 C   0  0  2  0  0  0  0  0  0  0  0  0
   -3.1505    1.8685    1.1513 C   0  0  0  0  0  0  0  0  0  0  0  0
   -3.7736    2.9212    1.0492 O   0  0  0  0  0  0  0  0  0  0  0  0
   -3.5795    0.6793    0.5908 N   0  0  0  0  0  0  0  0  0  0  0  0
   -4.7683    0.6202   -0.2722 C   0  0  1  0  0  0  0  0  0  0  0  0
   -6.0346    1.1571    0.4203 C   0  0  0  0  0  0  0  0  0  0  0  0
   -7.2686    0.3370    0.1075 C   0  0  0  0  0  0  0  0  0  0  0  0
   -8.2242    0.7988   -0.8081 C   0  0  0  0  0  0  0  0  0  0  0  0
   -9.3560    0.0339   -1.1004 C   0  0  0  0  0  0  0  0  0  0  0  0
   -9.5319   -1.1951   -0.4740 C   0  0  0  0  0  0  0  0  0  0  0  0
  -10.6213   -1.9740   -0.7300 O   0  0  0  0  0  0  0  0  0  0  0  0
   -8.5973   -1.6691    0.4377 C   0  0  0  0  0  0  0  0  0  0  0  0
   -7.4670   -0.9048    0.7299 C   0  0  0  0  0  0  0  0  0  0  0  0
   -4.4345    1.3228   -1.5955 C   0  0  0  0  0  0  0  0  0  0  0  0
   -3.3075    1.5310   -2.0293 O   0  0  0  0  0  0  0  0  0  0  0  0
   -5.5022    1.6428   -2.3497 O   0  0  0  0  0  0  0  0  0  0  0  0
   -1.5588    2.8468    2.8846 C   0  0  1  0  0  0  0  0  0  0  0  0
   -2.5007    2.6734    4.0696 C   0  0  0  0  0  0  0  0  0  0  0  0
   -0.2197    2.7665    3.3997 O   0  0  0  0  0  0  0  0  0  0  0  0
    2.9553   -2.5859    0.3457 C   0  0  0  0  0  0  0  0  0  0  0  0
    3.8919   -3.7987    0.2634 C   0  0  0  0  0  0  0  0  0  0  0  0
    1.5409   -3.0299   -0.0377 C   0  0  0  0  0  0  0  0  0  0  0  0
    9.5989    0.7632   -1.1847 H   0  0  0  0  0  0  0  0  0  0  0  0
   10.3560   -0.8173   -0.9535 H   0  0  0  0  0  0  0  0  0  0  0  0
    9.6576    0.0340    0.4312 H   0  0  0  0  0  0  0  0  0  0  0  0
    8.1515   -1.0977   -1.9846 H   0  0  0  0  0  0  0  0  0  0  0  0
    8.2026   -2.0755    0.9174 H   0  0  0  0  0  0  0  0  0  0  0  0
    7.1956   -2.7420   -0.3827 H   0  0  0  0  0  0  0  0  0  0  0  0
    8.9522   -2.8516   -0.4799 H   0  0  0  0  0  0  0  0  0  0  0  0
    7.1390    1.0168   -1.1437 H   0  0  0  0  0  0  0  0  0  0  0  0
    6.1012    1.0467    0.9865 H   0  0  0  0  0  0  0  0  0  0  0  0
    6.7994   -0.3987    1.4077 H   0  0  0  0  0  0  0  0  0  0  0  0
    4.9334   -0.6673    0.7398 H   0  0  0  0  0  0  0  0  0  0  0  0
    3.4223   -1.7143   -1.6033 H   0  0  0  0  0  0  0  0  0  0  0  0
    1.2946   -0.7100   -1.8003 H   0  0  0  0  0  0  0  0  0  0  0  0
    1.2964    2.0448   -0.6989 H   0  0  0  0  0  0  0  0  0  0  0  0
    0.9228    2.0572   -3.0638 H   0  0  0  0  0  0  0  0  0  0  0  0
   -0.6314    2.4230   -2.3044 H   0  0  0  0  0  0  0  0  0  0  0  0
   -1.8033    0.2866   -2.7636 H   0  0  0  0  0  0  0  0  0  0  0  0
   -0.6153    2.8814    0.3830 H   0  0  0  0  0  0  0  0  0  0  0  0
   -1.6279    0.7751    2.2410 H   0  0  0  0  0  0  0  0  0  0  0  0
   -2.8353    0.0098    0.3812 H   0  0  0  0  0  0  0  0  0  0  0  0
   -4.8816   -0.4436   -0.5149 H   0  0  0  0  0  0  0  0  0  0  0  0
   -5.9125    1.1413    1.5121 H   0  0  0  0  0  0  0  0  0  0  0  0
   -6.2139    2.2079    0.1595 H   0  0  0  0  0  0  0  0  0  0  0  0
   -8.0910    1.7588   -1.3027 H   0  0  0  0  0  0  0  0  0  0  0  0
  -10.0813    0.4121   -1.8135 H   0  0  0  0  0  0  0  0  0  0  0  0
  -11.1889   -1.5103   -1.3670 H   0  0  0  0  0  0  0  0  0  0  0  0
   -8.7496   -2.6295    0.9217 H   0  0  0  0  0  0  0  0  0  0  0  0
   -6.7448   -1.2836    1.4498 H   0  0  0  0  0  0  0  0  0  0  0  0
   -5.1193    2.0403   -3.1598 H   0  0  0  0  0  0  0  0  0  0  0  0
   -1.6800    3.8517    2.4637 H   0  0  0  0  0  0  0  0  0  0  0  0
   -3.5495    2.7819    3.7798 H   0  0  0  0  0  0  0  0  0  0  0  0
   -2.3659    1.6904    4.5345 H   0  0  0  0  0  0  0  0  0  0  0  0
   -2.2794    3.4173    4.8429 H   0  0  0  0  0  0  0  0  0  0  0  0
    0.3687    2.5249    2.6604 H   0  0  0  0  0  0  0  0  0  0  0  0
    2.9307   -2.2524    1.3918 H   0  0  0  0  0  0  0  0  0  0  0  0
    3.5100   -4.6275    0.8695 H   0  0  0  0  0  0  0  0  0  0  0  0
    4.8911   -3.5579    0.6401 H   0  0  0  0  0  0  0  0  0  0  0  0
    3.9918   -4.1521   -0.7685 H   0  0  0  0  0  0  0  0  0  0  0  0
    0.8125   -2.2388    0.1538 H   0  0  0  0  0  0  0  0  0  0  0  0
    1.4825   -3.3035   -1.0965 H   0  0  0  0  0  0  0  0  0  0  0  0
    1.2309   -3.8988    0.5532 H   0  0  0  0  0  0  0  0  0  0  0  0
  1  2  1  0
  2  3  1  0
  2  4  1  0
  4  5  1  0
  4  6  1  0
  6  7  2  0
  6  8  1  0
  8  9  1  0
  9 10  1  0
 10 11  2  0
 10 12  1  0
 12 13  1  0
 13 14  1  0
 14 15  1  0
 13 16  1  0
 16 17  2  0
 16 18  1  0
 18 19  1  0
 19 20  1  0
 20 21  2  0
 20 22  1  0
 22 23  1  0
 23 24  1  0
 24 25  1  0
 25 26  2  0
 26 27  1  0
 27 28  2  0
 28 29  1  0
 28 30  1  0
 30 31  2  0
 23 32  1  0
 32 33  2  0
 32 34  1  0
 19 35  1  0
 35 36  1  0
 35 37  1  0
  9 38  1  0
 38 39  1  0
 38 40  1  0
 31 25  1  0
  1 41  1  0
  1 42  1  0
  1 43  1  0
  2 44  1  0
  3 45  1  0
  3 46  1  0
  3 47  1  0
  4 48  1  6
  5 49  1  0
  5 50  1  0
  8 51  1  0
  9 52  1  6
 12 53  1  0
 13 54  1  1
 14 55  1  0
 14 56  1  0
 15 57  1  0
 18 58  1  0
 19 59  1  1
 22 60  1  0
 23 61  1  6
 24 62  1  0
 24 63  1  0
 26 64  1  0
 27 65  1  0
 29 66  1  0
 30 67  1  0
 31 68  1  0
 34 69  1  0
 35 70  1  6
 36 71  1  0
 36 72  1  0
 36 73  1  0
 37 74  1  0
 38 75  1  0
 39 76  1  0
 39 77  1  0
 39 78  1  0
 40 79  1  0
 40 80  1  0
 40 81  1  0
M  END
$$$$
VVCTY.sdf
     RDKit          3D

 81 81  0  0  0  0  0  0  0  0999 V2000
    7.5004    0.6544   -1.3932 C   0  0  0  0  0  0  0  0  0  0  0  0
    7.1592    0.4150    0.0820 C   0  0  0  0  0  0  0  0  0  0  0  0
    8.1671    1.1500    0.9722 C   0  0  0  0  0  0  0  0  0  0  0  0
    7.0687   -1.0840    0.4559 C   0  0  2  0  0  0  0  0  0  0  0  0
    8.3342   -1.8111    0.2160 N   0  0  0  0  0  0  0  0  0  0  0  0
    5.9142   -1.7943   -0.2948 C   0  0  0  0  0  0  0  0  0  0  0  0
    6.1129   -2.6455   -1.1602 O   0  0  0  0  0  0  0  0  0  0  0  0
    4.6556   -1.4138    0.1037 N   0  0  0  0  0  0  0  0  0  0  0  0
    3.4471   -1.8608   -0.5827 C   0  0  2  0  0  0  0  0  0  0  0  0
    2.5488   -0.6194   -0.7762 C   0  0  0  0  0  0  0  0  0  0  0  0
    2.7162    0.4187   -0.1337 O   0  0  0  0  0  0  0  0  0  0  0  0
    1.5324   -0.7706   -1.6954 N   0  0  0  0  0  0  0  0  0  0  0  0
    0.5066    0.2640   -1.8183 C   0  0  1  0  0  0  0  0  0  0  0  0
   -0.2266    0.2238   -3.1631 C   0  0  0  0  0  0  0  0  0  0  0  0
    0.8764    0.5909   -4.5661 S   0  0  0  0  0  0  0  0  0  0  0  0
   -0.5313    0.0155   -0.7103 C   0  0  0  0  0  0  0  0  0  0  0  0
   -0.7985   -1.1108   -0.2941 O   0  0  0  0  0  0  0  0  0  0  0  0
   -1.1682    1.1422   -0.2579 N   0  0  0  0  0  0  0  0  0  0  0  0
   -2.2433    1.1065    0.7372 C   0  0  2  0  0  0  0  0  0  0  0  0
   -3.2643    2.1866    0.3289 C   0  0  0  0  0  0  0  0  0  0  0  0
   -3.0425    2.9882   -0.5800 O   0  0  0  0  0  0  0  0  0  0  0  0
   -4.4489    2.1699    1.0214 N   0  0  0  0  0  0  0  0  0  0  0  0
   -5.5446    3.0958    0.7227 C   0  0  1  0  0  0  0  0  0  0  0  0
   -6.2983    2.7532   -0.5740 C   0  0  0  0  0  0  0  0  0  0  0  0
   -6.8324    1.3378   -0.6346 C   0  0  0  0  0  0  0  0  0  0  0  0
   -6.0572    0.3138   -1.1991 C   0  0  0  0  0  0  0  0  0  0  0  0
   -6.5329   -0.9971   -1.2323 C   0  0  0  0  0  0  0  0  0  0  0  0
   -7.7851   -1.2880   -0.7067 C   0  0  0  0  0  0  0  0  0  0  0  0
   -8.2100   -2.5822   -0.7590 O   0  0  0  0  0  0  0  0  0  0  0  0
   -8.5740   -0.2872   -0.1500 C   0  0  0  0  0  0  0  0  0  0  0  0
   -8.0974    1.0255   -0.1157 C   0  0  0  0  0  0  0  0  0  0  0  0
   -6.4814    3.1311    1.9268 C   0  0  0  0  0  0  0  0  0  0  0  0
   -6.4426    2.3803    2.8915 O   0  0  0  0  0  0  0  0  0  0  0  0
   -7.4022    4.1132    1.8644 O   0  0  0  0  0  0  0  0  0  0  0  0
   -1.7221    1.3462    2.1696 C   0  0  1  0  0  0  0  0  0  0  0  0
   -1.0305    0.1210    2.7577 C   0  0  0  0  0  0  0  0  0  0  0  0
   -0.7975    2.4398    2.1979 O   0  0  0  0  0  0  0  0  0  0  0  0
    2.7071   -2.9857    0.1772 C   0  0  0  0  0  0  0  0  0  0  0  0
    3.5051   -4.2924    0.1609 C   0  0  0  0  0  0  0  0  0  0  0  0
    2.3636   -2.6058    1.6215 C   0  0  0  0  0  0  0  0  0  0  0  0
    6.7775    0.1647   -2.0531 H   0  0  0  0  0  0  0  0  0  0  0  0
    7.4773    1.7259   -1.6210 H   0  0  0  0  0  0  0  0  0  0  0  0
    8.5000    0.2862   -1.6458 H   0  0  0  0  0  0  0  0  0  0  0  0
    6.1790    0.8755    0.2609 H   0  0  0  0  0  0  0  0  0  0  0  0
    9.1892    0.7925    0.8098 H   0  0  0  0  0  0  0  0  0  0  0  0
    8.1530    2.2253    0.7634 H   0  0  0  0  0  0  0  0  0  0  0  0
    7.9217    1.0145    2.0308 H   0  0  0  0  0  0  0  0  0  0  0  0
    6.8472   -1.1702    1.5275 H   0  0  0  0  0  0  0  0  0  0  0  0
    8.1888   -2.7842    0.4946 H   0  0  0  0  0  0  0  0  0  0  0  0
    8.4574   -1.8804   -0.7982 H   0  0  0  0  0  0  0  0  0  0  0  0
    4.5472   -0.5968    0.6978 H   0  0  0  0  0  0  0  0  0  0  0  0
    3.7212   -2.2127   -1.5854 H   0  0  0  0  0  0  0  0  0  0  0  0
    1.2524   -1.7159   -1.9288 H   0  0  0  0  0  0  0  0  0  0  0  0
    0.9657    1.2472   -1.6567 H   0  0  0  0  0  0  0  0  0  0  0  0
   -1.0436    0.9534   -3.1786 H   0  0  0  0  0  0  0  0  0  0  0  0
   -0.6701   -0.7638   -3.3337 H   0  0  0  0  0  0  0  0  0  0  0  0
   -0.0520    0.4774   -5.5278 H   0  0  0  0  0  0  0  0  0  0  0  0
   -1.0053    2.0472   -0.6941 H   0  0  0  0  0  0  0  0  0  0  0  0
   -2.7577    0.1395    0.6746 H   0  0  0  0  0  0  0  0  0  0  0  0
   -4.6553    1.4251    1.6813 H   0  0  0  0  0  0  0  0  0  0  0  0
   -5.1010    4.0951    0.6302 H   0  0  0  0  0  0  0  0  0  0  0  0
   -5.6357    2.9098   -1.4352 H   0  0  0  0  0  0  0  0  0  0  0  0
   -7.1330    3.4508   -0.7217 H   0  0  0  0  0  0  0  0  0  0  0  0
   -5.0782    0.5314   -1.6203 H   0  0  0  0  0  0  0  0  0  0  0  0
   -5.9305   -1.7885   -1.6693 H   0  0  0  0  0  0  0  0  0  0  0  0
   -9.0969   -2.6340   -0.3669 H   0  0  0  0  0  0  0  0  0  0  0  0
   -9.5553   -0.5067    0.2586 H   0  0  0  0  0  0  0  0  0  0  0  0
   -8.7244    1.8024    0.3165 H   0  0  0  0  0  0  0  0  0  0  0  0
   -7.8931    4.0399    2.7107 H   0  0  0  0  0  0  0  0  0  0  0  0
   -2.5501    1.6163    2.8337 H   0  0  0  0  0  0  0  0  0  0  0  0
   -0.7302    0.3193    3.7925 H   0  0  0  0  0  0  0  0  0  0  0  0
   -1.6897   -0.7520    2.7498 H   0  0  0  0  0  0  0  0  0  0  0  0
   -0.1119   -0.1204    2.2142 H   0  0  0  0  0  0  0  0  0  0  0  0
   -0.0247    2.1743    1.6650 H   0  0  0  0  0  0  0  0  0  0  0  0
    1.7584   -3.1858   -0.3370 H   0  0  0  0  0  0  0  0  0  0  0  0
    2.9224   -5.1045    0.6090 H   0  0  0  0  0  0  0  0  0  0  0  0
    3.7498   -4.5869   -0.8649 H   0  0  0  0  0  0  0  0  0  0  0  0
    4.4391   -4.2042    0.7252 H   0  0  0  0  0  0  0  0  0  0  0  0
    1.7553   -1.6973    1.6586 H   0  0  0  0  0  0  0  0  0  0  0  0
    3.2639   -2.4389    2.2220 H   0  0  0  0  0  0  0  0  0  0  0  0
    1.7883   -3.4050    2.1016 H   0  0  0  0  0  0  0  0  0  0  0  0
  1  2  1  0
  2  3  1  0
  2  4  1  0
  4  5  1  0
  4  6  1  0
  6  7  2  0
  6  8  1  0
  8  9  1  0
  9 10  1  0
 10 11  2  0
 10 12  1  0
 12 13  1  0
 13 14  1  0
 14 15  1  0
 13 16  1  0
 16 17  2  0
 16 18  1  0
 18 19  1  0
 19 20  1  0
 20 21  2  0
 20 22  1  0
 22 23  1  0
 23 24  1  0
 24 25  1  0
 25 26  2  0
 26 27  1  0
 27 28  2  0
 28 29  1  0
 28 30  1  0
 30 31  2  0
 23 32  1  0
 32 33  2  0
 32 34  1  0
 19 35  1  0
 35 36  1  0
 35 37  1  0
  9 38  1  0
 38 39  1  0
 38 40  1  0
 31 25  1  0
  1 41  1  0
  1 42  1  0
  1 43  1  0
  2 44  1  0
  3 45  1  0
  3 46  1  0
  3 47  1  0
  4 48  1  1
  5 49  1  0
  5 50  1  0
  8 51  1  0
  9 52  1  6
 12 53  1  0
 13 54  1  1
 14 55  1  0
 14 56  1  0
 15 57  1  0
 18 58  1  0
 19 59  1  1
 22 60  1  0
 23 61  1  6
 24 62  1  0
 24 63  1  0
 26 64  1  0
 27 65  1  0
 29 66  1  0
 30 67  1  0
 31 68  1  0
 34 69  1  0
 35 70  1  1
 36 71  1  0
 36 72  1  0
 36 73  1  0
 37 74  1  0
 38 75  1  0
 39 76  1  0
 39 77  1  0
 39 78  1  0
 40 79  1  0
 40 80  1  0
 40 81  1  0
M  END
$$$$
VVCTY.sdf
     RDKit          3D

 81 81  0  0  0  0  0  0  0  0999 V2000
    9.4465    0.7515   -2.6172 C   0  0  0  0  0  0  0  0  0  0  0  0
    8.0617    0.1026   -2.4895 C   0  0  0  0  0  0  0  0  0  0  0  0
    7.0062    1.1090   -2.9700 C   0  0  0  0  0  0  0  0  0  0  0  0
    7.7650   -0.3582   -1.0426 C   0  0  2  0  0  0  0  0  0  0  0  0
    8.8519   -1.2122   -0.5103 N   0  0  0  0  0  0  0  0  0  0  0  0
    6.4488   -1.1742   -0.9368 C   0  0  0  0  0  0  0  0  0  0  0  0
    5.8751   -1.6863   -1.8925 O   0  0  0  0  0  0  0  0  0  0  0  0
    6.0193   -1.3329    0.3731 N   0  0  0  0  0  0  0  0  0  0  0  0
    4.6893   -1.8852    0.6353 C   0  0  2  0  0  0  0  0  0  0  0  0
    3.6949   -0.7043    0.5841 C   0  0  0  0  0  0  0  0  0  0  0  0
    4.0197    0.4471    0.8760 O   0  0  0  0  0  0  0  0  0  0  0  0
    2.4140   -1.0341    0.2236 N   0  0  0  0  0  0  0  0  0  0  0  0
    1.3418   -0.0402    0.1450 C   0  0  1  0  0  0  0  0  0  0  0  0
    1.4688    0.8196   -1.1196 C   0  0  0  0  0  0  0  0  0  0  0  0
    0.6342    2.4324   -0.9535 S   0  0  0  0  0  0  0  0  0  0  0  0
    0.0195   -0.8329    0.1527 C   0  0  0  0  0  0  0  0  0  0  0  0
   -0.0049   -2.0574    0.0186 O   0  0  0  0  0  0  0  0  0  0  0  0
   -1.1184   -0.0899    0.3337 N   0  0  0  0  0  0  0  0  0  0  0  0
   -2.4577   -0.6766    0.2536 C   0  0  2  0  0  0  0  0  0  0  0  0
   -3.4742    0.4761    0.1047 C   0  0  0  0  0  0  0  0  0  0  0  0
   -3.1323    1.6575    0.1351 O   0  0  0  0  0  0  0  0  0  0  0  0
   -4.7772    0.0744   -0.0906 N   0  0  0  0  0  0  0  0  0  0  0  0
   -5.8792    1.0430   -0.0682 C   0  0  1  0  0  0  0  0  0  0  0  0
   -7.0585    0.5131   -0.8926 C   0  0  0  0  0  0  0  0  0  0  0  0
   -8.1803    1.5083   -1.0695 C   0  0  0  0  0  0  0  0  0  0  0  0
   -9.3919    1.3453   -0.3815 C   0  0  0  0  0  0  0  0  0  0  0  0
  -10.4271    2.2699   -0.5390 C   0  0  0  0  0  0  0  0  0  0  0  0
  -10.2492    3.3589   -1.3855 C   0  0  0  0  0  0  0  0  0  0  0  0
  -11.2331    4.2847   -1.5690 O   0  0  0  0  0  0  0  0  0  0  0  0
   -9.0563    3.5367   -2.0745 C   0  0  0  0  0  0  0  0  0  0  0  0
   -8.0220    2.6130   -1.9183 C   0  0  0  0  0  0  0  0  0  0  0  0
   -6.3042    1.2300    1.3876 C   0  0  0  0  0  0  0  0  0  0  0  0
   -6.3976    0.3478    2.2302 O   0  0  0  0  0  0  0  0  0  0  0  0
   -6.6025    2.5058    1.7003 O   0  0  0  0  0  0  0  0  0  0  0  0
   -2.7979   -1.5917    1.4528 C   0  0  1  0  0  0  0  0  0  0  0  0
   -2.8333   -0.8592    2.7910 C   0  0  0  0  0  0  0  0  0  0  0  0
   -4.0671   -2.2294    1.2352 O   0  0  0  0  0  0  0  0  0  0  0  0
    4.6629   -2.6519    1.9767 C   0  0  0  0  0  0  0  0  0  0  0  0
    4.8439   -1.7527    3.2039 C   0  0  0  0  0  0  0  0  0  0  0  0
    3.3934   -3.4933    2.1337 C   0  0  0  0  0  0  0  0  0  0  0  0
    9.5517    1.5987   -1.9308 H   0  0  0  0  0  0  0  0  0  0  0  0
   10.2461    0.0357   -2.4023 H   0  0  0  0  0  0  0  0  0  0  0  0
    9.6100    1.1202   -3.6358 H   0  0  0  0  0  0  0  0  0  0  0  0
    8.0320   -0.7638   -3.1635 H   0  0  0  0  0  0  0  0  0  0  0  0
    6.9912    2.0000   -2.3328 H   0  0  0  0  0  0  0  0  0  0  0  0
    6.0014    0.6770   -2.9679 H   0  0  0  0  0  0  0  0  0  0  0  0
    7.2183    1.4321   -3.9951 H   0  0  0  0  0  0  0  0  0  0  0  0
    7.6741    0.5225   -0.3948 H   0  0  0  0  0  0  0  0  0  0  0  0
    8.9674   -2.0081   -1.1408 H   0  0  0  0  0  0  0  0  0  0  0  0
    8.5473   -1.6146    0.3769 H   0  0  0  0  0  0  0  0  0  0  0  0
    6.3108   -0.5953    1.0063 H   0  0  0  0  0  0  0  0  0  0  0  0
    4.4406   -2.5776   -0.1784 H   0  0  0  0  0  0  0  0  0  0  0  0
    2.1750   -1.9866   -0.0441 H   0  0  0  0  0  0  0  0  0  0  0  0
    1.3997    0.5648    1.0582 H   0  0  0  0  0  0  0  0  0  0  0  0
    2.5172    1.0297   -1.3547 H   0  0  0  0  0  0  0  0  0  0  0  0
    1.0400    0.3022   -1.9849 H   0  0  0  0  0  0  0  0  0  0  0  0
    1.5121    2.9675   -0.0892 H   0  0  0  0  0  0  0  0  0  0  0  0
   -1.0755    0.9262    0.2361 H   0  0  0  0  0  0  0  0  0  0  0  0
   -2.5073   -1.2605   -0.6750 H   0  0  0  0  0  0  0  0  0  0  0  0
   -4.9843   -0.8647    0.2605 H   0  0  0  0  0  0  0  0  0  0  0  0
   -5.5098    1.9980   -0.4588 H   0  0  0  0  0  0  0  0  0  0  0  0
   -6.7081    0.2158   -1.8906 H   0  0  0  0  0  0  0  0  0  0  0  0
   -7.4514   -0.4074   -0.4395 H   0  0  0  0  0  0  0  0  0  0  0  0
   -9.5391    0.4963    0.2830 H   0  0  0  0  0  0  0  0  0  0  0  0
  -11.3564    2.1239    0.0022 H   0  0  0  0  0  0  0  0  0  0  0  0
  -12.0015    4.0298   -1.0330 H   0  0  0  0  0  0  0  0  0  0  0  0
   -8.9308    4.3923   -2.7319 H   0  0  0  0  0  0  0  0  0  0  0  0
   -7.0933    2.7638   -2.4647 H   0  0  0  0  0  0  0  0  0  0  0  0
   -6.8481    2.4836    2.6475 H   0  0  0  0  0  0  0  0  0  0  0  0
   -2.0559   -2.3949    1.5182 H   0  0  0  0  0  0  0  0  0  0  0  0
   -3.0539   -1.5630    3.6011 H   0  0  0  0  0  0  0  0  0  0  0  0
   -1.8777   -0.3740    3.0103 H   0  0  0  0  0  0  0  0  0  0  0  0
   -3.6258   -0.1049    2.8158 H   0  0  0  0  0  0  0  0  0  0  0  0
   -4.2072   -2.8425    1.9814 H   0  0  0  0  0  0  0  0  0  0  0  0
    5.5084   -3.3539    1.9659 H   0  0  0  0  0  0  0  0  0  0  0  0
    5.7704   -1.1737    3.1425 H   0  0  0  0  0  0  0  0  0  0  0  0
    4.0095   -1.0538    3.3211 H   0  0  0  0  0  0  0  0  0  0  0  0
    4.8972   -2.3576    4.1159 H   0  0  0  0  0  0  0  0  0  0  0  0
    3.2359   -4.1332    1.2594 H   0  0  0  0  0  0  0  0  0  0  0  0
    3.4729   -4.1452    3.0107 H   0  0  0  0  0  0  0  0  0  0  0  0
    2.5047   -2.8692    2.2692 H   0  0  0  0  0  0  0  0  0  0  0  0
  1  2  1  0
  2  3  1  0
  2  4  1  0
  4  5  1  0
  4  6  1  0
  6  7  2  0
  6  8  1  0
  8  9  1  0
  9 10  1  0
 10 11  2  0
 10 12  1  0
 12 13  1  0
 13 14  1  0
 14 15  1  0
 13 16  1  0
 16 17  2  0
 16 18  1  0
 18 19  1  0
 19 20  1  0
 20 21  2  0
 20 22  1  0
 22 23  1  0
 23 24  1  0
 24 25  1  0
 25 26  2  0
 26 27  1  0
 27 28  2  0
 28 29  1  0
 28 30  1  0
 30 31  2  0
 23 32  1  0
 32 33  2  0
 32 34  1  0
 19 35  1  0
 35 36  1  0
 35 37  1  0
  9 38  1  0
 38 39  1  0
 38 40  1  0
 31 25  1  0
  1 41  1  0
  1 42  1  0
  1 43  1  0
  2 44  1  0
  3 45  1  0
  3 46  1  0
  3 47  1  0
  4 48  1  1
  5 49  1  0
  5 50  1  0
  8 51  1  0
  9 52  1  6
 12 53  1  0
 13 54  1  1
 14 55  1  0
 14 56  1  0
 15 57  1  0
 18 58  1  0
 19 59  1  6
 22 60  1  0
 23 61  1  6
 24 62  1  0
 24 63  1  0
 26 64  1  0
 27 65  1  0
 29 66  1  0
 30 67  1  0
 31 68  1  0
 34 69  1  0
 35 70  1  1
 36 71  1  0
 36 72  1  0
 36 73  1  0
 37 74  1  0
 38 75  1  0
 39 76  1  0
 39 77  1  0
 39 78  1  0
 40 79  1  0
 40 80  1  0
 40 81  1  0
M  END
$$$$
VVCTY.sdf
     RDKit          3D

 81 81  0  0  0  0  0  0  0  0999 V2000
    9.6095    0.0023   -0.6110 C   0  0  0  0  0  0  0  0  0  0  0  0
    8.3966   -0.6155   -1.3169 C   0  0  0  0  0  0  0  0  0  0  0  0
    8.7163   -2.0680   -1.6928 C   0  0  0  0  0  0  0  0  0  0  0  0
    7.1161   -0.4504   -0.4626 C   0  0  2  0  0  0  0  0  0  0  0  0
    7.1256   -1.2973    0.7509 N   0  0  0  0  0  0  0  0  0  0  0  0
    5.8161   -0.7025   -1.2679 C   0  0  0  0  0  0  0  0  0  0  0  0
    5.7849   -1.0775   -2.4353 O   0  0  0  0  0  0  0  0  0  0  0  0
    4.6701   -0.4604   -0.5394 N   0  0  0  0  0  0  0  0  0  0  0  0
    3.3309   -0.6007   -1.1137 C   0  0  2  0  0  0  0  0  0  0  0  0
    2.4399    0.4225   -0.3746 C   0  0  0  0  0  0  0  0  0  0  0  0
    2.7384    0.8582    0.7390 O   0  0  0  0  0  0  0  0  0  0  0  0
    1.3089    0.8281   -1.0480 N   0  0  0  0  0  0  0  0  0  0  0  0
    0.2877    1.6185   -0.3573 C   0  0  1  0  0  0  0  0  0  0  0  0
   -0.4179    2.6142   -1.2887 C   0  0  0  0  0  0  0  0  0  0  0  0
   -1.1340    1.8631   -2.7931 S   0  0  0  0  0  0  0  0  0  0  0  0
   -0.7249    0.6619    0.3024 C   0  0  0  0  0  0  0  0  0  0  0  0
   -0.8536   -0.5106   -0.0464 O   0  0  0  0  0  0  0  0  0  0  0  0
   -1.4907    1.2228    1.2950 N   0  0  0  0  0  0  0  0  0  0  0  0
   -2.6595    0.5339    1.8522 C   0  0  2  0  0  0  0  0  0  0  0  0
   -3.7811    1.5855    1.9384 C   0  0  0  0  0  0  0  0  0  0  0  0
   -3.5602    2.7885    1.7874 O   0  0  0  0  0  0  0  0  0  0  0  0
   -5.0397    1.0833    2.1539 N   0  0  0  0  0  0  0  0  0  0  0  0
   -6.2346    1.9302    2.1030 C   0  0  1  0  0  0  0  0  0  0  0  0
   -6.5572    2.4621    0.6936 C   0  0  0  0  0  0  0  0  0  0  0  0
   -6.4847    1.4227   -0.4056 C   0  0  0  0  0  0  0  0  0  0  0  0
   -5.3329    1.3223   -1.2030 C   0  0  0  0  0  0  0  0  0  0  0  0
   -5.2361    0.3462   -2.1961 C   0  0  0  0  0  0  0  0  0  0  0  0
   -6.2971   -0.5287   -2.3972 C   0  0  0  0  0  0  0  0  0  0  0  0
   -6.2458   -1.4987   -3.3537 O   0  0  0  0  0  0  0  0  0  0  0  0
   -7.4494   -0.4390   -1.6258 C   0  0  0  0  0  0  0  0  0  0  0  0
   -7.5460    0.5363   -0.6317 C   0  0  0  0  0  0  0  0  0  0  0  0
   -7.4049    1.1373    2.6770 C   0  0  0  0  0  0  0  0  0  0  0  0
   -7.4166   -0.0633    2.9091 O   0  0  0  0  0  0  0  0  0  0  0  0
   -8.4905    1.8926    2.9358 O   0  0  0  0  0  0  0  0  0  0  0  0
   -2.3726   -0.0955    3.2280 C   0  0  1  0  0  0  0  0  0  0  0  0
   -1.5597   -1.3815    3.1190 C   0  0  0  0  0  0  0  0  0  0  0  0
   -1.6534    0.8173    4.0651 O   0  0  0  0  0  0  0  0  0  0  0  0
    2.8531   -2.0677   -1.0165 C   0  0  0  0  0  0  0  0  0  0  0  0
    2.5091   -2.4935    0.4140 C   0  0  0  0  0  0  0  0  0  0  0  0
    1.6859   -2.3756   -1.9553 C   0  0  0  0  0  0  0  0  0  0  0  0
   10.4964   -0.0476   -1.2519 H   0  0  0  0  0  0  0  0  0  0  0  0
    9.8419   -0.5183    0.3240 H   0  0  0  0  0  0  0  0  0  0  0  0
    9.4287    1.0569   -0.3778 H   0  0  0  0  0  0  0  0  0  0  0  0
    8.2497   -0.0624   -2.2545 H   0  0  0  0  0  0  0  0  0  0  0  0
    8.9978   -2.6626   -0.8174 H   0  0  0  0  0  0  0  0  0  0  0  0
    9.5583   -2.1014   -2.3933 H   0  0  0  0  0  0  0  0  0  0  0  0
    7.8680   -2.5586   -2.1781 H   0  0  0  0  0  0  0  0  0  0  0  0
    7.0613    0.5964   -0.1347 H   0  0  0  0  0  0  0  0  0  0  0  0
    7.1461   -2.2767    0.4633 H   0  0  0  0  0  0  0  0  0  0  0  0
    6.2445   -1.1867    1.2502 H   0  0  0  0  0  0  0  0  0  0  0  0
    4.7327    0.0238    0.3523 H   0  0  0  0  0  0  0  0  0  0  0  0
    3.3930   -0.2958   -2.1659 H   0  0  0  0  0  0  0  0  0  0  0  0
    0.9511    0.2018   -1.7601 H   0  0  0  0  0  0  0  0  0  0  0  0
    0.7675    2.1872    0.4490 H   0  0  0  0  0  0  0  0  0  0  0  0
   -1.2273    3.1287   -0.7607 H   0  0  0  0  0  0  0  0  0  0  0  0
    0.2964    3.3752   -1.6206 H   0  0  0  0  0  0  0  0  0  0  0  0
    0.0294    1.6667   -3.4322 H   0  0  0  0  0  0  0  0  0  0  0  0
   -1.4771    2.2282    1.4510 H   0  0  0  0  0  0  0  0  0  0  0  0
   -2.9988   -0.2337    1.1455 H   0  0  0  0  0  0  0  0  0  0  0  0
   -5.2036    0.0821    2.0892 H   0  0  0  0  0  0  0  0  0  0  0  0
   -6.0557    2.7756    2.7792 H   0  0  0  0  0  0  0  0  0  0  0  0
   -7.5516    2.9263    0.6734 H   0  0  0  0  0  0  0  0  0  0  0  0
   -5.8582    3.2727    0.4492 H   0  0  0  0  0  0  0  0  0  0  0  0
   -4.4994    2.0067   -1.0545 H   0  0  0  0  0  0  0  0  0  0  0  0
   -4.3333    0.2876   -2.7964 H   0  0  0  0  0  0  0  0  0  0  0  0
   -5.3910   -1.4347   -3.8109 H   0  0  0  0  0  0  0  0  0  0  0  0
   -8.2718   -1.1275   -1.7989 H   0  0  0  0  0  0  0  0  0  0  0  0
   -8.4575    0.5942   -0.0419 H   0  0  0  0  0  0  0  0  0  0  0  0
   -9.1395    1.2650    3.3201 H   0  0  0  0  0  0  0  0  0  0  0  0
   -3.3116   -0.3267    3.7427 H   0  0  0  0  0  0  0  0  0  0  0  0
   -2.0662   -2.1209    2.4916 H   0  0  0  0  0  0  0  0  0  0  0  0
   -1.4066   -1.8160    4.1130 H   0  0  0  0  0  0  0  0  0  0  0  0
   -0.5621   -1.1921    2.7090 H   0  0  0  0  0  0  0  0  0  0  0  0
   -0.8096    1.0060    3.6149 H   0  0  0  0  0  0  0  0  0  0  0  0
    3.6838   -2.7074   -1.3460 H   0  0  0  0  0  0  0  0  0  0  0  0
    1.6388   -1.9529    0.8000 H   0  0  0  0  0  0  0  0  0  0  0  0
    2.2753   -3.5632    0.4493 H   0  0  0  0  0  0  0  0  0  0  0  0
    3.3502   -2.3175    1.0922 H   0  0  0  0  0  0  0  0  0  0  0  0
    0.7538   -1.9175   -1.6174 H   0  0  0  0  0  0  0  0  0  0  0  0
    1.8959   -2.0278   -2.9719 H   0  0  0  0  0  0  0  0  0  0  0  0
    1.5142   -3.4567   -2.0049 H   0  0  0  0  0  0  0  0  0  0  0  0
  1  2  1  0
  2  3  1  0
  2  4  1  0
  4  5  1  0
  4  6  1  0
  6  7  2  0
  6  8  1  0
  8  9  1  0
  9 10  1  0
 10 11  2  0
 10 12  1  0
 12 13  1  0
 13 14  1  0
 14 15  1  0
 13 16  1  0
 16 17  2  0
 16 18  1  0
 18 19  1  0
 19 20  1  0
 20 21  2  0
 20 22  1  0
 22 23  1  0
 23 24  1  0
 24 25  1  0
 25 26  2  0
 26 27  1  0
 27 28  2  0
 28 29  1  0
 28 30  1  0
 30 31  2  0
 23 32  1  0
 32 33  2  0
 32 34  1  0
 19 35  1  0
 35 36  1  0
 35 37  1  0
  9 38  1  0
 38 39  1  0
 38 40  1  0
 31 25  1  0
  1 41  1  0
  1 42  1  0
  1 43  1  0
  2 44  1  0
  3 45  1  0
  3 46  1  0
  3 47  1  0
  4 48  1  1
  5 49  1  0
  5 50  1  0
  8 51  1  0
  9 52  1  6
 12 53  1  0
 13 54  1  1
 14 55  1  0
 14 56  1  0
 15 57  1  0
 18 58  1  0
 19 59  1  6
 22 60  1  0
 23 61  1  1
 24 62  1  0
 24 63  1  0
 26 64  1  0
 27 65  1  0
 29 66  1  0
 30 67  1  0
 31 68  1  0
 34 69  1  0
 35 70  1  1
 36 71  1  0
 36 72  1  0
 36 73  1  0
 37 74  1  0
 38 75  1  0
 39 76  1  0
 39 77  1  0
 39 78  1  0
 40 79  1  0
 40 80  1  0
 40 81  1  0
M  END
$$$$
VVCTY.sdf
     RDKit          3D

 81 81  0  0  0  0  0  0  0  0999 V2000
    8.5722   -0.3785   -2.2641 C   0  0  0  0  0  0  0  0  0  0  0  0
    7.1504   -0.9355   -2.1125 C   0  0  0  0  0  0  0  0  0  0  0  0
    6.9542   -2.0745   -3.1213 C   0  0  0  0  0  0  0  0  0  0  0  0
    6.0822    0.1676   -2.3055 C   0  0  2  0  0  0  0  0  0  0  0  0
    6.2698    1.2837   -1.3522 N   0  0  0  0  0  0  0  0  0  0  0  0
    4.6288   -0.3459   -2.1592 C   0  0  0  0  0  0  0  0  0  0  0  0
    3.7507   -0.0680   -2.9721 O   0  0  0  0  0  0  0  0  0  0  0  0
    4.3870   -1.0712   -1.0082 N   0  0  0  0  0  0  0  0  0  0  0  0
    3.0169   -1.3121   -0.5679 C   0  0  2  0  0  0  0  0  0  0  0  0
    2.6297   -0.1532    0.3779 C   0  0  0  0  0  0  0  0  0  0  0  0
    3.4667    0.5768    0.9108 O   0  0  0  0  0  0  0  0  0  0  0  0
    1.2838   -0.0189    0.6110 N   0  0  0  0  0  0  0  0  0  0  0  0
    0.7499    0.9763    1.5438 C   0  0  1  0  0  0  0  0  0  0  0  0
    0.7887    2.3898    0.9456 C   0  0  0  0  0  0  0  0  0  0  0  0
    0.8983    3.6834    2.2300 S   0  0  0  0  0  0  0  0  0  0  0  0
   -0.6936    0.5383    1.8653 C   0  0  0  0  0  0  0  0  0  0  0  0
   -1.2253   -0.4242    1.3056 O   0  0  0  0  0  0  0  0  0  0  0  0
   -1.3519    1.2942    2.7998 N   0  0  0  0  0  0  0  0  0  0  0  0
   -2.6111    0.8687    3.4366 C   0  0  2  0  0  0  0  0  0  0  0  0
   -3.8487    1.1260    2.5397 C   0  0  0  0  0  0  0  0  0  0  0  0
   -4.9097    1.5689    2.9746 O   0  0  0  0  0  0  0  0  0  0  0  0
   -3.7205    0.6985    1.2356 N   0  0  0  0  0  0  0  0  0  0  0  0
   -4.8722    0.6461    0.3297 C   0  0  1  0  0  0  0  0  0  0  0  0
   -4.3945    0.7200   -1.1254 C   0  0  0  0  0  0  0  0  0  0  0  0
   -5.5109    0.8592   -2.1325 C   0  0  0  0  0  0  0  0  0  0  0  0
   -6.2082    2.0692   -2.2566 C   0  0  0  0  0  0  0  0  0  0  0  0
   -7.2449    2.1944   -3.1823 C   0  0  0  0  0  0  0  0  0  0  0  0
   -7.5861    1.1136   -3.9854 C   0  0  0  0  0  0  0  0  0  0  0  0
   -8.6040    1.2806   -4.8769 O   0  0  0  0  0  0  0  0  0  0  0  0
   -6.9070   -0.0953   -3.8786 C   0  0  0  0  0  0  0  0  0  0  0  0
   -5.8697   -0.2215   -2.9516 C   0  0  0  0  0  0  0  0  0  0  0  0
   -5.5987   -0.6753    0.5753 C   0  0  0  0  0  0  0  0  0  0  0  0
   -5.0743   -1.7586    0.7938 O   0  0  0  0  0  0  0  0  0  0  0  0
   -6.9407   -0.5690    0.5158 O   0  0  0  0  0  0  0  0  0  0  0  0
   -2.7750    1.6010    4.7914 C   0  0  1  0  0  0  0  0  0  0  0  0
   -3.6149    0.8042    5.7835 C   0  0  0  0  0  0  0  0  0  0  0  0
   -1.4710    1.8110    5.3720 O   0  0  0  0  0  0  0  0  0  0  0  0
    2.8456   -2.6848    0.1186 C   0  0  0  0  0  0  0  0  0  0  0  0
    3.7743   -2.8853    1.3207 C   0  0  0  0  0  0  0  0  0  0  0  0
    3.0454   -3.8227   -0.8873 C   0  0  0  0  0  0  0  0  0  0  0  0
    9.3146   -1.1778   -2.1637 H   0  0  0  0  0  0  0  0  0  0  0  0
    8.7937    0.3674   -1.4942 H   0  0  0  0  0  0  0  0  0  0  0  0
    8.7119    0.0902   -3.2442 H   0  0  0  0  0  0  0  0  0  0  0  0
    7.0704   -1.3647   -1.1057 H   0  0  0  0  0  0  0  0  0  0  0  0
    7.0112   -1.7057   -4.1512 H   0  0  0  0  0  0  0  0  0  0  0  0
    5.9848   -2.5650   -2.9894 H   0  0  0  0  0  0  0  0  0  0  0  0
    7.7258   -2.8417   -2.9948 H   0  0  0  0  0  0  0  0  0  0  0  0
    6.1774    0.5741   -3.3204 H   0  0  0  0  0  0  0  0  0  0  0  0
    5.6099    2.0246   -1.6004 H   0  0  0  0  0  0  0  0  0  0  0  0
    5.9956    0.9986   -0.4119 H   0  0  0  0  0  0  0  0  0  0  0  0
    5.0579   -0.9332   -0.2617 H   0  0  0  0  0  0  0  0  0  0  0  0
    2.3461   -1.2581   -1.4346 H   0  0  0  0  0  0  0  0  0  0  0  0
    0.6183   -0.6749    0.2076 H   0  0  0  0  0  0  0  0  0  0  0  0
    1.3486    0.9024    2.4600 H   0  0  0  0  0  0  0  0  0  0  0  0
    1.6560    2.5239    0.2913 H   0  0  0  0  0  0  0  0  0  0  0  0
   -0.1051    2.5831    0.3423 H   0  0  0  0  0  0  0  0  0  0  0  0
    2.1675    3.4276    2.5881 H   0  0  0  0  0  0  0  0  0  0  0  0
   -0.7836    1.8924    3.3986 H   0  0  0  0  0  0  0  0  0  0  0  0
   -2.5378   -0.2140    3.5999 H   0  0  0  0  0  0  0  0  0  0  0  0
   -2.9710    0.0231    1.0696 H   0  0  0  0  0  0  0  0  0  0  0  0
   -5.5440    1.4755    0.5786 H   0  0  0  0  0  0  0  0  0  0  0  0
   -3.7879   -0.1633   -1.3682 H   0  0  0  0  0  0  0  0  0  0  0  0
   -3.7176    1.5765   -1.2494 H   0  0  0  0  0  0  0  0  0  0  0  0
   -5.9504    2.9238   -1.6346 H   0  0  0  0  0  0  0  0  0  0  0  0
   -7.7844    3.1325   -3.2761 H   0  0  0  0  0  0  0  0  0  0  0  0
   -8.7238    0.4515   -5.3677 H   0  0  0  0  0  0  0  0  0  0  0  0
   -7.1673   -0.9441   -4.5027 H   0  0  0  0  0  0  0  0  0  0  0  0
   -5.3437   -1.1710   -2.8738 H   0  0  0  0  0  0  0  0  0  0  0  0
   -7.2700   -1.4720    0.7008 H   0  0  0  0  0  0  0  0  0  0  0  0
   -3.2120    2.5952    4.6418 H   0  0  0  0  0  0  0  0  0  0  0  0
   -3.1375   -0.1541    6.0162 H   0  0  0  0  0  0  0  0  0  0  0  0
   -3.7012    1.3468    6.7312 H   0  0  0  0  0  0  0  0  0  0  0  0
   -4.6222    0.6106    5.4057 H   0  0  0  0  0  0  0  0  0  0  0  0
   -1.6085    2.2850    6.2128 H   0  0  0  0  0  0  0  0  0  0  0  0
    1.8152   -2.7577    0.4908 H   0  0  0  0  0  0  0  0  0  0  0  0
    4.8285   -2.8835    1.0250 H   0  0  0  0  0  0  0  0  0  0  0  0
    3.6278   -2.1031    2.0720 H   0  0  0  0  0  0  0  0  0  0  0  0
    3.5696   -3.8464    1.8053 H   0  0  0  0  0  0  0  0  0  0  0  0
    4.0698   -3.8447   -1.2737 H   0  0  0  0  0  0  0  0  0  0  0  0
    2.3631   -3.7147   -1.7370 H   0  0  0  0  0  0  0  0  0  0  0  0
    2.8428   -4.7921   -0.4195 H   0  0  0  0  0  0  0  0  0  0  0  0
  1  2  1  0
  2  3  1  0
  2  4  1  0
  4  5  1  0
  4  6  1  0
  6  7  2  0
  6  8  1  0
  8  9  1  0
  9 10  1  0
 10 11  2  0
 10 12  1  0
 12 13  1  0
 13 14  1  0
 14 15  1  0
 13 16  1  0
 16 17  2  0
 16 18  1  0
 18 19  1  0
 19 20  1  0
 20 21  2  0
 20 22  1  0
 22 23  1  0
 23 24  1  0
 24 25  1  0
 25 26  2  0
 26 27  1  0
 27 28  2  0
 28 29  1  0
 28 30  1  0
 30 31  2  0
 23 32  1  0
 32 33  2  0
 32 34  1  0
 19 35  1  0
 35 36  1  0
 35 37  1  0
  9 38  1  0
 38 39  1  0
 38 40  1  0
 31 25  1  0
  1 41  1  0
  1 42  1  0
  1 43  1  0
  2 44  1  0
  3 45  1  0
  3 46  1  0
  3 47  1  0
  4 48  1  6
  5 49  1  0
  5 50  1  0
  8 51  1  0
  9 52  1  6
 12 53  1  0
 13 54  1  1
 14 55  1  0
 14 56  1  0
 15 57  1  0
 18 58  1  0
 19 59  1  1
 22 60  1  0
 23 61  1  1
 24 62  1  0
 24 63  1  0
 26 64  1  0
 27 65  1  0
 29 66  1  0
 30 67  1  0
 31 68  1  0
 34 69  1  0
 35 70  1  6
 36 71  1  0
 36 72  1  0
 36 73  1  0
 37 74  1  0
 38 75  1  0
 39 76  1  0
 39 77  1  0
 39 78  1  0
 40 79  1  0
 40 80  1  0
 40 81  1  0
M  END
$$$$
VVCTY.sdf
     RDKit          3D

 81 81  0  0  0  0  0  0  0  0999 V2000
    9.3357   -0.3966   -2.6658 C   0  0  0  0  0  0  0  0  0  0  0  0
    8.1565   -1.0969   -1.9820 C   0  0  0  0  0  0  0  0  0  0  0  0
    8.6366   -1.7727   -0.6926 C   0  0  0  0  0  0  0  0  0  0  0  0
    6.9707   -0.1248   -1.7793 C   0  0  2  0  0  0  0  0  0  0  0  0
    7.2771    0.9807   -0.8460 N   0  0  0  0  0  0  0  0  0  0  0  0
    5.6957   -0.8970   -1.3651 C   0  0  0  0  0  0  0  0  0  0  0  0
    5.0233   -1.5321   -2.1748 O   0  0  0  0  0  0  0  0  0  0  0  0
    5.3921   -0.8563   -0.0160 N   0  0  0  0  0  0  0  0  0  0  0  0
    4.0966   -1.3556    0.4429 C   0  0  2  0  0  0  0  0  0  0  0  0
    3.0851   -0.2099    0.2244 C   0  0  0  0  0  0  0  0  0  0  0  0
    3.4053    0.9771    0.2968 O   0  0  0  0  0  0  0  0  0  0  0  0
    1.8016   -0.6125   -0.0363 N   0  0  0  0  0  0  0  0  0  0  0  0
    0.7307    0.3337   -0.3386 C   0  0  1  0  0  0  0  0  0  0  0  0
    0.8752    0.9927   -1.7197 C   0  0  0  0  0  0  0  0  0  0  0  0
    1.0043   -0.1957   -3.1013 S   0  0  0  0  0  0  0  0  0  0  0  0
   -0.6137   -0.3994   -0.1859 C   0  0  0  0  0  0  0  0  0  0  0  0
   -0.6915   -1.6197   -0.0221 O   0  0  0  0  0  0  0  0  0  0  0  0
   -1.7322    0.3932   -0.2151 N   0  0  0  0  0  0  0  0  0  0  0  0
   -3.0871   -0.1566   -0.0949 C   0  0  2  0  0  0  0  0  0  0  0  0
   -4.0265    0.9122   -0.6797 C   0  0  0  0  0  0  0  0  0  0  0  0
   -3.7350    2.1083   -0.6605 O   0  0  0  0  0  0  0  0  0  0  0  0
   -5.2133    0.4343   -1.1868 N   0  0  0  0  0  0  0  0  0  0  0  0
   -6.2147    1.3145   -1.8081 C   0  0  1  0  0  0  0  0  0  0  0  0
   -6.7050    2.4681   -0.9119 C   0  0  0  0  0  0  0  0  0  0  0  0
   -7.1866    2.0094    0.4477 C   0  0  0  0  0  0  0  0  0  0  0  0
   -6.4294    2.2866    1.5960 C   0  0  0  0  0  0  0  0  0  0  0  0
   -6.8491    1.8384    2.8501 C   0  0  0  0  0  0  0  0  0  0  0  0
   -8.0321    1.1157    2.9556 C   0  0  0  0  0  0  0  0  0  0  0  0
   -8.4781    0.6543    4.1584 O   0  0  0  0  0  0  0  0  0  0  0  0
   -8.8010    0.8403    1.8316 C   0  0  0  0  0  0  0  0  0  0  0  0
   -8.3812    1.2874    0.5780 C   0  0  0  0  0  0  0  0  0  0  0  0
   -5.6949    1.7876   -3.1696 C   0  0  0  0  0  0  0  0  0  0  0  0
   -4.8847    1.1946   -3.8686 O   0  0  0  0  0  0  0  0  0  0  0  0
   -6.2818    2.9081   -3.6316 O   0  0  0  0  0  0  0  0  0  0  0  0
   -3.4737   -0.4665    1.3738 C   0  0  1  0  0  0  0  0  0  0  0  0
   -4.6973   -1.3697    1.4857 C   0  0  0  0  0  0  0  0  0  0  0  0
   -2.4150   -1.1215    2.0888 O   0  0  0  0  0  0  0  0  0  0  0  0
    4.1677   -1.8415    1.9069 C   0  0  0  0  0  0  0  0  0  0  0  0
    4.4268   -0.7202    2.9181 C   0  0  0  0  0  0  0  0  0  0  0  0
    2.9141   -2.6231    2.3096 C   0  0  0  0  0  0  0  0  0  0  0  0
   10.1304   -1.1148   -2.8954 H   0  0  0  0  0  0  0  0  0  0  0  0
    9.7657    0.3856   -2.0315 H   0  0  0  0  0  0  0  0  0  0  0  0
    9.0218    0.0627   -3.6091 H   0  0  0  0  0  0  0  0  0  0  0  0
    7.8198   -1.8973   -2.6550 H   0  0  0  0  0  0  0  0  0  0  0  0
    7.8263   -2.3209   -0.2030 H   0  0  0  0  0  0  0  0  0  0  0  0
    9.4291   -2.4961   -0.9147 H   0  0  0  0  0  0  0  0  0  0  0  0
    9.0441   -1.0500    0.0213 H   0  0  0  0  0  0  0  0  0  0  0  0
    6.7281    0.3432   -2.7421 H   0  0  0  0  0  0  0  0  0  0  0  0
    7.5630    0.6226    0.0607 H   0  0  0  0  0  0  0  0  0  0  0  0
    6.4554    1.5739   -0.7294 H   0  0  0  0  0  0  0  0  0  0  0  0
    5.7170   -0.0215    0.4536 H   0  0  0  0  0  0  0  0  0  0  0  0
    3.8107   -2.1974   -0.2000 H   0  0  0  0  0  0  0  0  0  0  0  0
    1.5859   -1.5963   -0.1771 H   0  0  0  0  0  0  0  0  0  0  0  0
    0.7636    1.1160    0.4306 H   0  0  0  0  0  0  0  0  0  0  0  0
    1.7742    1.6167   -1.7490 H   0  0  0  0  0  0  0  0  0  0  0  0
    0.0211    1.6455   -1.9265 H   0  0  0  0  0  0  0  0  0  0  0  0
    2.2076   -0.6913   -2.7646 H   0  0  0  0  0  0  0  0  0  0  0  0
   -1.6595    1.4071   -0.2317 H   0  0  0  0  0  0  0  0  0  0  0  0
   -3.1237   -1.0658   -0.7065 H   0  0  0  0  0  0  0  0  0  0  0  0
   -5.2336   -0.5351   -1.4805 H   0  0  0  0  0  0  0  0  0  0  0  0
   -7.0674    0.6598   -2.0303 H   0  0  0  0  0  0  0  0  0  0  0  0
   -5.9278    3.2329   -0.7958 H   0  0  0  0  0  0  0  0  0  0  0  0
   -7.5384    2.9898   -1.4017 H   0  0  0  0  0  0  0  0  0  0  0  0
   -5.5008    2.8496    1.5167 H   0  0  0  0  0  0  0  0  0  0  0  0
   -6.2438    2.0608    3.7231 H   0  0  0  0  0  0  0  0  0  0  0  0
   -7.8501    0.9282    4.8469 H   0  0  0  0  0  0  0  0  0  0  0  0
   -9.7262    0.2799    1.9322 H   0  0  0  0  0  0  0  0  0  0  0  0
   -8.9953    1.0685   -0.2921 H   0  0  0  0  0  0  0  0  0  0  0  0
   -5.8481    3.0637   -4.4981 H   0  0  0  0  0  0  0  0  0  0  0  0
   -3.6727    0.4675    1.9118 H   0  0  0  0  0  0  0  0  0  0  0  0
   -5.5966   -0.9012    1.0803 H   0  0  0  0  0  0  0  0  0  0  0  0
   -4.8905   -1.6200    2.5350 H   0  0  0  0  0  0  0  0  0  0  0  0
   -4.5299   -2.3185    0.9643 H   0  0  0  0  0  0  0  0  0  0  0  0
   -1.9205   -1.6793    1.4519 H   0  0  0  0  0  0  0  0  0  0  0  0
    5.0141   -2.5388    1.9773 H   0  0  0  0  0  0  0  0  0  0  0  0
    3.5987   -0.0049    2.9518 H   0  0  0  0  0  0  0  0  0  0  0  0
    5.3442   -0.1725    2.6823 H   0  0  0  0  0  0  0  0  0  0  0  0
    4.5445   -1.1347    3.9256 H   0  0  0  0  0  0  0  0  0  0  0  0
    2.7073   -3.4272    1.5957 H   0  0  0  0  0  0  0  0  0  0  0  0
    3.0490   -3.0820    3.2951 H   0  0  0  0  0  0  0  0  0  0  0  0
    2.0322   -1.9773    2.3656 H   0  0  0  0  0  0  0  0  0  0  0  0
  1  2  1  0
  2  3  1  0
  2  4  1  0
  4  5  1  0
  4  6  1  0
  6  7  2  0
  6  8  1  0
  8  9  1  0
  9 10  1  0
 10 11  2  0
 10 12  1  0
 12 13  1  0
 13 14  1  0
 14 15  1  0
 13 16  1  0
 16 17  2  0
 16 18  1  0
 18 19  1  0
 19 20  1  0
 20 21  2  0
 20 22  1  0
 22 23  1  0
 23 24  1  0
 24 25  1  0
 25 26  2  0
 26 27  1  0
 27 28  2  0
 28 29  1  0
 28 30  1  0
 30 31  2  0
 23 32  1  0
 32 33  2  0
 32 34  1  0
 19 35  1  0
 35 36  1  0
 35 37  1  0
  9 38  1  0
 38 39  1  0
 38 40  1  0
 31 25  1  0
  1 41  1  0
  1 42  1  0
  1 43  1  0
  2 44  1  0
  3 45  1  0
  3 46  1  0
  3 47  1  0
  4 48  1  6
  5 49  1  0
  5 50  1  0
  8 51  1  0
  9 52  1  6
 12 53  1  0
 13 54  1  1
 14 55  1  0
 14 56  1  0
 15 57  1  0
 18 58  1  0
 19 59  1  6
 22 60  1  0
 23 61  1  6
 24 62  1  0
 24 63  1  0
 26 64  1  0
 27 65  1  0
 29 66  1  0
 30 67  1  0
 31 68  1  0
 34 69  1  0
 35 70  1  1
 36 71  1  0
 36 72  1  0
 36 73  1  0
 37 74  1  0
 38 75  1  0
 39 76  1  0
 39 77  1  0
 39 78  1  0
 40 79  1  0
 40 80  1  0
 40 81  1  0
M  END
$$$$
VVCTY.sdf
     RDKit          3D

 81 81  0  0  0  0  0  0  0  0999 V2000
    5.9963   -2.3654   -2.2337 C   0  0  0  0  0  0  0  0  0  0  0  0
    5.7724   -0.9211   -2.6958 C   0  0  0  0  0  0  0  0  0  0  0  0
    7.0596   -0.3756   -3.3234 C   0  0  0  0  0  0  0  0  0  0  0  0
    5.2497    0.0194   -1.5848 C   0  0  2  0  0  0  0  0  0  0  0  0
    6.1638    0.1123   -0.4256 N   0  0  0  0  0  0  0  0  0  0  0  0
    3.8157   -0.3810   -1.1645 C   0  0  0  0  0  0  0  0  0  0  0  0
    2.8351   -0.1241   -1.8607 O   0  0  0  0  0  0  0  0  0  0  0  0
    3.7217   -1.0746    0.0302 N   0  0  0  0  0  0  0  0  0  0  0  0
    2.3993   -1.3391    0.5955 C   0  0  2  0  0  0  0  0  0  0  0  0
    1.9307   -0.0199    1.2430 C   0  0  0  0  0  0  0  0  0  0  0  0
    2.6943    0.7241    1.8587 O   0  0  0  0  0  0  0  0  0  0  0  0
    0.6016    0.2627    1.0684 N   0  0  0  0  0  0  0  0  0  0  0  0
   -0.0002    1.5249    1.4928 C   0  0  1  0  0  0  0  0  0  0  0  0
    0.5152    2.7379    0.6997 C   0  0  0  0  0  0  0  0  0  0  0  0
    0.3105    2.6064   -1.1083 S   0  0  0  0  0  0  0  0  0  0  0  0
   -1.5315    1.3566    1.4250 C   0  0  0  0  0  0  0  0  0  0  0  0
   -2.0613    0.2837    1.1279 O   0  0  0  0  0  0  0  0  0  0  0  0
   -2.2765    2.4655    1.7435 N   0  0  0  0  0  0  0  0  0  0  0  0
   -3.7300    2.3890    1.9754 C   0  0  2  0  0  0  0  0  0  0  0  0
   -4.5664    2.3067    0.6710 C   0  0  0  0  0  0  0  0  0  0  0  0
   -5.6169    2.9293    0.5160 O   0  0  0  0  0  0  0  0  0  0  0  0
   -4.1348    1.3776   -0.2522 N   0  0  0  0  0  0  0  0  0  0  0  0
   -5.0015    0.9538   -1.3505 C   0  0  1  0  0  0  0  0  0  0  0  0
   -4.2207    0.4100   -2.5599 C   0  0  0  0  0  0  0  0  0  0  0  0
   -3.1546   -0.6262   -2.2679 C   0  0  0  0  0  0  0  0  0  0  0  0
   -3.4838   -1.9151   -1.8263 C   0  0  0  0  0  0  0  0  0  0  0  0
   -2.4831   -2.8535   -1.5577 C   0  0  0  0  0  0  0  0  0  0  0  0
   -1.1491   -2.5090   -1.7452 C   0  0  0  0  0  0  0  0  0  0  0  0
   -0.1458   -3.3971   -1.4925 O   0  0  0  0  0  0  0  0  0  0  0  0
   -0.8010   -1.2453   -2.1998 C   0  0  0  0  0  0  0  0  0  0  0  0
   -1.8014   -0.3073   -2.4606 C   0  0  0  0  0  0  0  0  0  0  0  0
   -6.0305   -0.0590   -0.8427 C   0  0  0  0  0  0  0  0  0  0  0  0
   -6.0212   -0.6553    0.2240 O   0  0  0  0  0  0  0  0  0  0  0  0
   -7.0336   -0.2749   -1.7215 O   0  0  0  0  0  0  0  0  0  0  0  0
   -4.1729    3.6181    2.8092 C   0  0  1  0  0  0  0  0  0  0  0  0
   -5.3916    3.3205    3.6759 C   0  0  0  0  0  0  0  0  0  0  0  0
   -3.0859    4.0152    3.6751 O   0  0  0  0  0  0  0  0  0  0  0  0
    2.4187   -2.5265    1.5824 C   0  0  0  0  0  0  0  0  0  0  0  0
    1.0072   -2.9036    2.0418 C   0  0  0  0  0  0  0  0  0  0  0  0
    3.3131   -2.3059    2.8070 C   0  0  0  0  0  0  0  0  0  0  0  0
    5.0810   -2.7989   -1.8197 H   0  0  0  0  0  0  0  0  0  0  0  0
    6.7836   -2.4355   -1.4765 H   0  0  0  0  0  0  0  0  0  0  0  0
    6.2985   -2.9930   -3.0796 H   0  0  0  0  0  0  0  0  0  0  0  0
    5.0132   -0.9542   -3.4893 H   0  0  0  0  0  0  0  0  0  0  0  0
    6.9104    0.6445   -3.6929 H   0  0  0  0  0  0  0  0  0  0  0  0
    7.8862   -0.3613   -2.6055 H   0  0  0  0  0  0  0  0  0  0  0  0
    7.3664   -0.9943   -4.1737 H   0  0  0  0  0  0  0  0  0  0  0  0
    5.1624    1.0350   -1.9920 H   0  0  0  0  0  0  0  0  0  0  0  0
    5.7731    0.7429    0.2737 H   0  0  0  0  0  0  0  0  0  0  0  0
    6.3084   -0.8032   -0.0086 H   0  0  0  0  0  0  0  0  0  0  0  0
    4.4373   -0.8329    0.7018 H   0  0  0  0  0  0  0  0  0  0  0  0
    1.7278   -1.5820   -0.2359 H   0  0  0  0  0  0  0  0  0  0  0  0
    0.0179   -0.3475    0.4979 H   0  0  0  0  0  0  0  0  0  0  0  0
    0.2579    1.6635    2.5505 H   0  0  0  0  0  0  0  0  0  0  0  0
    0.0091    3.6536    1.0210 H   0  0  0  0  0  0  0  0  0  0  0  0
    1.5836    2.8852    0.8874 H   0  0  0  0  0  0  0  0  0  0  0  0
    1.1417    1.5617   -1.2832 H   0  0  0  0  0  0  0  0  0  0  0  0
   -1.8345    3.1582    2.3429 H   0  0  0  0  0  0  0  0  0  0  0  0
   -3.9146    1.4677    2.5429 H   0  0  0  0  0  0  0  0  0  0  0  0
   -3.4690    0.6839    0.0980 H   0  0  0  0  0  0  0  0  0  0  0  0
   -5.5761    1.8310   -1.6752 H   0  0  0  0  0  0  0  0  0  0  0  0
   -3.7442    1.2648   -3.0589 H   0  0  0  0  0  0  0  0  0  0  0  0
   -4.9093   -0.0134   -3.3025 H   0  0  0  0  0  0  0  0  0  0  0  0
   -4.5206   -2.2096   -1.6863 H   0  0  0  0  0  0  0  0  0  0  0  0
   -2.7657   -3.8400   -1.2044 H   0  0  0  0  0  0  0  0  0  0  0  0
   -0.5468   -4.2592   -1.2936 H   0  0  0  0  0  0  0  0  0  0  0  0
    0.2430   -0.9876   -2.3614 H   0  0  0  0  0  0  0  0  0  0  0  0
   -1.5131    0.6781   -2.8211 H   0  0  0  0  0  0  0  0  0  0  0  0
   -7.6307   -0.8918   -1.2478 H   0  0  0  0  0  0  0  0  0  0  0  0
   -4.3758    4.4755    2.1570 H   0  0  0  0  0  0  0  0  0  0  0  0
   -5.6739    4.2073    4.2537 H   0  0  0  0  0  0  0  0  0  0  0  0
   -5.1686    2.5329    4.4041 H   0  0  0  0  0  0  0  0  0  0  0  0
   -6.2533    3.0111    3.0784 H   0  0  0  0  0  0  0  0  0  0  0  0
   -3.4098    4.7677    4.2041 H   0  0  0  0  0  0  0  0  0  0  0  0
    2.8256   -3.3918    1.0411 H   0  0  0  0  0  0  0  0  0  0  0  0
    0.3462   -3.0709    1.1867 H   0  0  0  0  0  0  0  0  0  0  0  0
    1.0287   -3.8282    2.6289 H   0  0  0  0  0  0  0  0  0  0  0  0
    0.5633   -2.1240    2.6694 H   0  0  0  0  0  0  0  0  0  0  0  0
    4.3458   -2.0903    2.5174 H   0  0  0  0  0  0  0  0  0  0  0  0
    2.9516   -1.4827    3.4313 H   0  0  0  0  0  0  0  0  0  0  0  0
    3.3335   -3.2064    3.4311 H   0  0  0  0  0  0  0  0  0  0  0  0
  1  2  1  0
  2  3  1  0
  2  4  1  0
  4  5  1  0
  4  6  1  0
  6  7  2  0
  6  8  1  0
  8  9  1  0
  9 10  1  0
 10 11  2  0
 10 12  1  0
 12 13  1  0
 13 14  1  0
 14 15  1  0
 13 16  1  0
 16 17  2  0
 16 18  1  0
 18 19  1  0
 19 20  1  0
 20 21  2  0
 20 22  1  0
 22 23  1  0
 23 24  1  0
 24 25  1  0
 25 26  2  0
 26 27  1  0
 27 28  2  0
 28 29  1  0
 28 30  1  0
 30 31  2  0
 23 32  1  0
 32 33  2  0
 32 34  1  0
 19 35  1  0
 35 36  1  0
 35 37  1  0
  9 38  1  0
 38 39  1  0
 38 40  1  0
 31 25  1  0
  1 41  1  0
  1 42  1  0
  1 43  1  0
  2 44  1  0
  3 45  1  0
  3 46  1  0
  3 47  1  0
  4 48  1  6
  5 49  1  0
  5 50  1  0
  8 51  1  0
  9 52  1  6
 12 53  1  0
 13 54  1  1
 14 55  1  0
 14 56  1  0
 15 57  1  0
 18 58  1  0
 19 59  1  1
 22 60  1  0
 23 61  1  6
 24 62  1  0
 24 63  1  0
 26 64  1  0
 27 65  1  0
 29 66  1  0
 30 67  1  0
 31 68  1  0
 34 69  1  0
 35 70  1  6
 36 71  1  0
 36 72  1  0
 36 73  1  0
 37 74  1  0
 38 75  1  0
 39 76  1  0
 39 77  1  0
 39 78  1  0
 40 79  1  0
 40 80  1  0
 40 81  1  0
M  END
$$$$
VVCTY.sdf
     RDKit          3D

 81 81  0  0  0  0  0  0  0  0999 V2000
    8.5244    1.6902    0.6367 C   0  0  0  0  0  0  0  0  0  0  0  0
    8.0061    1.2009   -0.7227 C   0  0  0  0  0  0  0  0  0  0  0  0
    9.1690    1.2039   -1.7232 C   0  0  0  0  0  0  0  0  0  0  0  0
    7.3574   -0.1973   -0.5929 C   0  0  2  0  0  0  0  0  0  0  0  0
    6.9225   -0.7156   -1.9109 N   0  0  0  0  0  0  0  0  0  0  0  0
    6.1049   -0.1762    0.3194 C   0  0  0  0  0  0  0  0  0  0  0  0
    5.3645    0.7954    0.4185 O   0  0  0  0  0  0  0  0  0  0  0  0
    5.8589   -1.4048    0.9075 N   0  0  0  0  0  0  0  0  0  0  0  0
    4.5984   -1.7242    1.5807 C   0  0  2  0  0  0  0  0  0  0  0  0
    3.4413   -1.6933    0.5427 C   0  0  0  0  0  0  0  0  0  0  0  0
    3.6485   -1.8358   -0.6658 O   0  0  0  0  0  0  0  0  0  0  0  0
    2.1654   -1.6261    1.0390 N   0  0  0  0  0  0  0  0  0  0  0  0
    0.9949   -1.6295    0.1668 C   0  0  1  0  0  0  0  0  0  0  0  0
    0.6300   -3.0302   -0.3491 C   0  0  0  0  0  0  0  0  0  0  0  0
    0.3952   -4.2829    0.9663 S   0  0  0  0  0  0  0  0  0  0  0  0
   -0.1774   -0.9861    0.9259 C   0  0  0  0  0  0  0  0  0  0  0  0
   -0.1713   -0.8507    2.1492 O   0  0  0  0  0  0  0  0  0  0  0  0
   -1.2345   -0.5935    0.1462 N   0  0  0  0  0  0  0  0  0  0  0  0
   -2.4675   -0.0378    0.7063 C   0  0  2  0  0  0  0  0  0  0  0  0
   -3.5416   -0.1047   -0.4002 C   0  0  0  0  0  0  0  0  0  0  0  0
   -3.2829   -0.5162   -1.5317 O   0  0  0  0  0  0  0  0  0  0  0  0
   -4.7990    0.2989   -0.0124 N   0  0  0  0  0  0  0  0  0  0  0  0
   -5.8769    0.4705   -0.9932 C   0  0  1  0  0  0  0  0  0  0  0  0
   -7.2392    0.2891   -0.3131 C   0  0  0  0  0  0  0  0  0  0  0  0
   -8.4043    0.2770   -1.2736 C   0  0  0  0  0  0  0  0  0  0  0  0
   -9.2710    1.3763   -1.3528 C   0  0  0  0  0  0  0  0  0  0  0  0
  -10.3391    1.3690   -2.2508 C   0  0  0  0  0  0  0  0  0  0  0  0
  -10.5434    0.2661   -3.0701 C   0  0  0  0  0  0  0  0  0  0  0  0
  -11.5980    0.3028   -3.9335 O   0  0  0  0  0  0  0  0  0  0  0  0
   -9.6966   -0.8351   -3.0064 C   0  0  0  0  0  0  0  0  0  0  0  0
   -8.6276   -0.8288   -2.1073 C   0  0  0  0  0  0  0  0  0  0  0  0
   -5.7645    1.8826   -1.5662 C   0  0  0  0  0  0  0  0  0  0  0  0
   -5.4903    2.8952   -0.9372 O   0  0  0  0  0  0  0  0  0  0  0  0
   -6.0157    1.9462   -2.8882 O   0  0  0  0  0  0  0  0  0  0  0  0
   -2.2960    1.3918    1.2673 C   0  0  1  0  0  0  0  0  0  0  0  0
   -1.9005    2.4212    0.2127 C   0  0  0  0  0  0  0  0  0  0  0  0
   -3.5154    1.8141    1.8982 O   0  0  0  0  0  0  0  0  0  0  0  0
    4.3761   -1.0565    2.9611 C   0  0  0  0  0  0  0  0  0  0  0  0
    5.5696   -1.3001    3.8937 C   0  0  0  0  0  0  0  0  0  0  0  0
    4.0331    0.4323    2.9468 C   0  0  0  0  0  0  0  0  0  0  0  0
    9.2734    1.0030    1.0451 H   0  0  0  0  0  0  0  0  0  0  0  0
    7.7152    1.7815    1.3677 H   0  0  0  0  0  0  0  0  0  0  0  0
    8.9893    2.6775    0.5415 H   0  0  0  0  0  0  0  0  0  0  0  0
    7.2571    1.9229   -1.0742 H   0  0  0  0  0  0  0  0  0  0  0  0
    8.8267    0.9703   -2.7363 H   0  0  0  0  0  0  0  0  0  0  0  0
    9.9340    0.4714   -1.4434 H   0  0  0  0  0  0  0  0  0  0  0  0
    9.6446    2.1900   -1.7625 H   0  0  0  0  0  0  0  0  0  0  0  0
    8.0877   -0.8993   -0.1719 H   0  0  0  0  0  0  0  0  0  0  0  0
    6.2944   -1.5110   -1.7731 H   0  0  0  0  0  0  0  0  0  0  0  0
    6.3208   -0.0067   -2.3390 H   0  0  0  0  0  0  0  0  0  0  0  0
    6.3279   -2.1887    0.4704 H   0  0  0  0  0  0  0  0  0  0  0  0
    4.6990   -2.7990    1.7970 H   0  0  0  0  0  0  0  0  0  0  0  0
    1.9814   -1.5157    2.0305 H   0  0  0  0  0  0  0  0  0  0  0  0
    1.2205   -0.9834   -0.6914 H   0  0  0  0  0  0  0  0  0  0  0  0
   -0.2912   -2.9968   -0.9399 H   0  0  0  0  0  0  0  0  0  0  0  0
    1.4235   -3.4055   -1.0036 H   0  0  0  0  0  0  0  0  0  0  0  0
   -0.5768   -3.6419    1.6344 H   0  0  0  0  0  0  0  0  0  0  0  0
   -1.2426   -0.7640   -0.8574 H   0  0  0  0  0  0  0  0  0  0  0  0
   -2.7987   -0.7074    1.5108 H   0  0  0  0  0  0  0  0  0  0  0  0
   -4.8082    0.9319    0.7926 H   0  0  0  0  0  0  0  0  0  0  0  0
   -5.7291   -0.2555   -1.8007 H   0  0  0  0  0  0  0  0  0  0  0  0
   -7.3918    1.0731    0.4413 H   0  0  0  0  0  0  0  0  0  0  0  0
   -7.2505   -0.6560    0.2468 H   0  0  0  0  0  0  0  0  0  0  0  0
   -9.1228    2.2476   -0.7184 H   0  0  0  0  0  0  0  0  0  0  0  0
  -11.0098    2.2214   -2.3111 H   0  0  0  0  0  0  0  0  0  0  0  0
  -11.6132   -0.5272   -4.4374 H   0  0  0  0  0  0  0  0  0  0  0  0
   -9.8493   -1.7007   -3.6430 H   0  0  0  0  0  0  0  0  0  0  0  0
   -7.9690   -1.6939   -2.0628 H   0  0  0  0  0  0  0  0  0  0  0  0
   -5.9236    2.8937   -3.1175 H   0  0  0  0  0  0  0  0  0  0  0  0
   -1.5277    1.3831    2.0484 H   0  0  0  0  0  0  0  0  0  0  0  0
   -0.9618    2.1528   -0.2806 H   0  0  0  0  0  0  0  0  0  0  0  0
   -1.7748    3.4065    0.6750 H   0  0  0  0  0  0  0  0  0  0  0  0
   -2.6785    2.5363   -0.5483 H   0  0  0  0  0  0  0  0  0  0  0  0
   -3.3394    2.6872    2.2978 H   0  0  0  0  0  0  0  0  0  0  0  0
    3.5197   -1.5632    3.4257 H   0  0  0  0  0  0  0  0  0  0  0  0
    5.3514   -0.9340    4.9029 H   0  0  0  0  0  0  0  0  0  0  0  0
    6.4698   -0.7866    3.5399 H   0  0  0  0  0  0  0  0  0  0  0  0
    5.7936   -2.3693    3.9701 H   0  0  0  0  0  0  0  0  0  0  0  0
    3.2792    0.6736    2.1925 H   0  0  0  0  0  0  0  0  0  0  0  0
    4.9170    1.0540    2.7784 H   0  0  0  0  0  0  0  0  0  0  0  0
    3.6249    0.7297    3.9198 H   0  0  0  0  0  0  0  0  0  0  0  0
  1  2  1  0
  2  3  1  0
  2  4  1  0
  4  5  1  0
  4  6  1  0
  6  7  2  0
  6  8  1  0
  8  9  1  0
  9 10  1  0
 10 11  2  0
 10 12  1  0
 12 13  1  0
 13 14  1  0
 14 15  1  0
 13 16  1  0
 16 17  2  0
 16 18  1  0
 18 19  1  0
 19 20  1  0
 20 21  2  0
 20 22  1  0
 22 23  1  0
 23 24  1  0
 24 25  1  0
 25 26  2  0
 26 27  1  0
 27 28  2  0
 28 29  1  0
 28 30  1  0
 30 31  2  0
 23 32  1  0
 32 33  2  0
 32 34  1  0
 19 35  1  0
 35 36  1  0
 35 37  1  0
  9 38  1  0
 38 39  1  0
 38 40  1  0
 31 25  1  0
  1 41  1  0
  1 42  1  0
  1 43  1  0
  2 44  1  0
  3 45  1  0
  3 46  1  0
  3 47  1  0
  4 48  1  1
  5 49  1  0
  5 50  1  0
  8 51  1  0
  9 52  1  1
 12 53  1  0
 13 54  1  6
 14 55  1  0
 14 56  1  0
 15 57  1  0
 18 58  1  0
 19 59  1  1
 22 60  1  0
 23 61  1  6
 24 62  1  0
 24 63  1  0
 26 64  1  0
 27 65  1  0
 29 66  1  0
 30 67  1  0
 31 68  1  0
 34 69  1  0
 35 70  1  1
 36 71  1  0
 36 72  1  0
 36 73  1  0
 37 74  1  0
 38 75  1  0
 39 76  1  0
 39 77  1  0
 39 78  1  0
 40 79  1  0
 40 80  1  0
 40 81  1  0
M  END
$$$$
VVCTY.sdf
     RDKit          3D

 81 81  0  0  0  0  0  0  0  0999 V2000
    7.0793   -0.4194    2.3178 C   0  0  0  0  0  0  0  0  0  0  0  0
    7.6695   -0.6192    0.9180 C   0  0  0  0  0  0  0  0  0  0  0  0
    8.2056   -2.0497    0.7895 C   0  0  0  0  0  0  0  0  0  0  0  0
    6.7091   -0.2762   -0.2447 C   0  0  2  0  0  0  0  0  0  0  0  0
    6.3739    1.1673   -0.2627 N   0  0  0  0  0  0  0  0  0  0  0  0
    5.4249   -1.1425   -0.2537 C   0  0  0  0  0  0  0  0  0  0  0  0
    5.3652   -2.2172   -0.8460 O   0  0  0  0  0  0  0  0  0  0  0  0
    4.3749   -0.6360    0.4866 N   0  0  0  0  0  0  0  0  0  0  0  0
    3.0266   -1.1711    0.3148 C   0  0  2  0  0  0  0  0  0  0  0  0
    2.3152   -0.2762   -0.7263 C   0  0  0  0  0  0  0  0  0  0  0  0
    2.7315    0.8454   -1.0214 O   0  0  0  0  0  0  0  0  0  0  0  0
    1.1691   -0.8148   -1.2662 N   0  0  0  0  0  0  0  0  0  0  0  0
    0.2445    0.0185   -2.0336 C   0  0  1  0  0  0  0  0  0  0  0  0
   -0.5498   -0.8042   -3.0579 C   0  0  0  0  0  0  0  0  0  0  0  0
   -1.4625   -2.2127   -2.3328 S   0  0  0  0  0  0  0  0  0  0  0  0
   -0.6925    0.7570   -1.0562 C   0  0  0  0  0  0  0  0  0  0  0  0
   -0.8512    0.4053    0.1136 O   0  0  0  0  0  0  0  0  0  0  0  0
   -1.3590    1.8316   -1.6005 N   0  0  0  0  0  0  0  0  0  0  0  0
   -2.4807    2.4420   -0.8935 C   0  0  2  0  0  0  0  0  0  0  0  0
   -3.7335    1.5703   -1.1326 C   0  0  0  0  0  0  0  0  0  0  0  0
   -3.8033    0.7334   -2.0314 O   0  0  0  0  0  0  0  0  0  0  0  0
   -4.7646    1.8083   -0.2511 N   0  0  0  0  0  0  0  0  0  0  0  0
   -6.0600    1.1233   -0.3411 C   0  0  1  0  0  0  0  0  0  0  0  0
   -6.2784    0.1606    0.8333 C   0  0  0  0  0  0  0  0  0  0  0  0
   -5.5199   -1.1369    0.6831 C   0  0  0  0  0  0  0  0  0  0  0  0
   -4.1797   -1.2369    1.0837 C   0  0  0  0  0  0  0  0  0  0  0  0
   -3.4758   -2.4306    0.9133 C   0  0  0  0  0  0  0  0  0  0  0  0
   -4.1146   -3.5266    0.3439 C   0  0  0  0  0  0  0  0  0  0  0  0
   -3.4592   -4.7051    0.1441 O   0  0  0  0  0  0  0  0  0  0  0  0
   -5.4439   -3.4503   -0.0497 C   0  0  0  0  0  0  0  0  0  0  0  0
   -6.1454   -2.2554    0.1131 C   0  0  0  0  0  0  0  0  0  0  0  0
   -7.1302    2.2086   -0.3012 C   0  0  0  0  0  0  0  0  0  0  0  0
   -6.9803    3.3471    0.1215 O   0  0  0  0  0  0  0  0  0  0  0  0
   -8.3273    1.8001   -0.7640 O   0  0  0  0  0  0  0  0  0  0  0  0
   -2.7310    3.8811   -1.3883 C   0  0  1  0  0  0  0  0  0  0  0  0
   -1.6823    4.8469   -0.8459 C   0  0  0  0  0  0  0  0  0  0  0  0
   -2.6793    3.9187   -2.8216 O   0  0  0  0  0  0  0  0  0  0  0  0
    2.2407   -1.2259    1.6440 C   0  0  0  0  0  0  0  0  0  0  0  0
    2.8405   -2.2742    2.5859 C   0  0  0  0  0  0  0  0  0  0  0  0
    2.1575    0.1276    2.3576 C   0  0  0  0  0  0  0  0  0  0  0  0
    7.8403   -0.6146    3.0818 H   0  0  0  0  0  0  0  0  0  0  0  0
    6.2458   -1.1025    2.5074 H   0  0  0  0  0  0  0  0  0  0  0  0
    6.7271    0.6047    2.4696 H   0  0  0  0  0  0  0  0  0  0  0  0
    8.5369    0.0506    0.8348 H   0  0  0  0  0  0  0  0  0  0  0  0
    8.6490   -2.2137   -0.1982 H   0  0  0  0  0  0  0  0  0  0  0  0
    8.9840   -2.2374    1.5371 H   0  0  0  0  0  0  0  0  0  0  0  0
    7.4163   -2.7936    0.9389 H   0  0  0  0  0  0  0  0  0  0  0  0
    7.2166   -0.4773   -1.1967 H   0  0  0  0  0  0  0  0  0  0  0  0
    5.6417    1.3393   -0.9553 H   0  0  0  0  0  0  0  0  0  0  0  0
    6.0385    1.4861    0.6404 H   0  0  0  0  0  0  0  0  0  0  0  0
    4.4071    0.3667    0.6193 H   0  0  0  0  0  0  0  0  0  0  0  0
    3.0861   -2.1792   -0.1135 H   0  0  0  0  0  0  0  0  0  0  0  0
    0.7422   -1.6002   -0.7876 H   0  0  0  0  0  0  0  0  0  0  0  0
    0.8257    0.7800   -2.5685 H   0  0  0  0  0  0  0  0  0  0  0  0
   -1.2663   -0.1795   -3.6003 H   0  0  0  0  0  0  0  0  0  0  0  0
    0.1446   -1.2258   -3.7929 H   0  0  0  0  0  0  0  0  0  0  0  0
   -2.5070   -1.4972   -1.8715 H   0  0  0  0  0  0  0  0  0  0  0  0
   -1.4148    1.9253   -2.6095 H   0  0  0  0  0  0  0  0  0  0  0  0
   -2.2773    2.4348    0.1846 H   0  0  0  0  0  0  0  0  0  0  0  0
   -4.7022    2.5733    0.4114 H   0  0  0  0  0  0  0  0  0  0  0  0
   -6.1327    0.6120   -1.3078 H   0  0  0  0  0  0  0  0  0  0  0  0
   -7.3460   -0.0731    0.9414 H   0  0  0  0  0  0  0  0  0  0  0  0
   -5.9918    0.6370    1.7808 H   0  0  0  0  0  0  0  0  0  0  0  0
   -3.6656   -0.3828    1.5190 H   0  0  0  0  0  0  0  0  0  0  0  0
   -2.4364   -2.4806    1.2219 H   0  0  0  0  0  0  0  0  0  0  0  0
   -2.5079   -4.5436    0.2566 H   0  0  0  0  0  0  0  0  0  0  0  0
   -5.9279   -4.3143   -0.4954 H   0  0  0  0  0  0  0  0  0  0  0  0
   -7.1815   -2.2054   -0.2137 H   0  0  0  0  0  0  0  0  0  0  0  0
   -8.9079    2.5872   -0.6937 H   0  0  0  0  0  0  0  0  0  0  0  0
   -3.7255    4.2266   -1.0847 H   0  0  0  0  0  0  0  0  0  0  0  0
   -0.6794    4.5832   -1.1990 H   0  0  0  0  0  0  0  0  0  0  0  0
   -1.6801    4.8574    0.2482 H   0  0  0  0  0  0  0  0  0  0  0  0
   -1.8805    5.8639   -1.2015 H   0  0  0  0  0  0  0  0  0  0  0  0
   -2.8597    4.8348   -3.0991 H   0  0  0  0  0  0  0  0  0  0  0  0
    1.2116   -1.5397    1.4267 H   0  0  0  0  0  0  0  0  0  0  0  0
    3.8579   -2.0087    2.8906 H   0  0  0  0  0  0  0  0  0  0  0  0
    2.2339   -2.3707    3.4928 H   0  0  0  0  0  0  0  0  0  0  0  0
    2.8748   -3.2565    2.1030 H   0  0  0  0  0  0  0  0  0  0  0  0
    1.5383    0.0472    3.2578 H   0  0  0  0  0  0  0  0  0  0  0  0
    1.7038    0.8893    1.7160 H   0  0  0  0  0  0  0  0  0  0  0  0
    3.1451    0.4849    2.6675 H   0  0  0  0  0  0  0  0  0  0  0  0
  1  2  1  0
  2  3  1  0
  2  4  1  0
  4  5  1  0
  4  6  1  0
  6  7  2  0
  6  8  1  0
  8  9  1  0
  9 10  1  0
 10 11  2  0
 10 12  1  0
 12 13  1  0
 13 14  1  0
 14 15  1  0
 13 16  1  0
 16 17  2  0
 16 18  1  0
 18 19  1  0
 19 20  1  0
 20 21  2  0
 20 22  1  0
 22 23  1  0
 23 24  1  0
 24 25  1  0
 25 26  2  0
 26 27  1  0
 27 28  2  0
 28 29  1  0
 28 30  1  0
 30 31  2  0
 23 32  1  0
 32 33  2  0
 32 34  1  0
 19 35  1  0
 35 36  1  0
 35 37  1  0
  9 38  1  0
 38 39  1  0
 38 40  1  0
 31 25  1  0
  1 41  1  0
  1 42  1  0
  1 43  1  0
  2 44  1  0
  3 45  1  0
  3 46  1  0
  3 47  1  0
  4 48  1  6
  5 49  1  0
  5 50  1  0
  8 51  1  0
  9 52  1  6
 12 53  1  0
 13 54  1  6
 14 55  1  0
 14 56  1  0
 15 57  1  0
 18 58  1  0
 19 59  1  1
 22 60  1  0
 23 61  1  6
 24 62  1  0
 24 63  1  0
 26 64  1  0
 27 65  1  0
 29 66  1  0
 30 67  1  0
 31 68  1  0
 34 69  1  0
 35 70  1  6
 36 71  1  0
 36 72  1  0
 36 73  1  0
 37 74  1  0
 38 75  1  0
 39 76  1  0
 39 77  1  0
 39 78  1  0
 40 79  1  0
 40 80  1  0
 40 81  1  0
M  END
$$$$
VVCTY.sdf
     RDKit          3D

 81 81  0  0  0  0  0  0  0  0999 V2000
    8.1222   -0.0143   -0.7486 C   0  0  0  0  0  0  0  0  0  0  0  0
    6.6896   -0.5308   -0.5597 C   0  0  0  0  0  0  0  0  0  0  0  0
    6.4291   -1.6514   -1.5746 C   0  0  0  0  0  0  0  0  0  0  0  0
    5.6497    0.6057   -0.7074 C   0  0  2  0  0  0  0  0  0  0  0  0
    5.8989    1.7011    0.2520 N   0  0  0  0  0  0  0  0  0  0  0  0
    4.1891    0.1306   -0.5252 C   0  0  0  0  0  0  0  0  0  0  0  0
    3.2850    0.4672   -1.2882 O   0  0  0  0  0  0  0  0  0  0  0  0
    3.9390   -0.5944    0.6198 N   0  0  0  0  0  0  0  0  0  0  0  0
    2.5889   -1.0554    0.9816 C   0  0  2  0  0  0  0  0  0  0  0  0
    1.8108    0.0615    1.7340 C   0  0  0  0  0  0  0  0  0  0  0  0
    1.0495   -0.1390    2.6749 O   0  0  0  0  0  0  0  0  0  0  0  0
    1.9226    1.3107    1.1619 N   0  0  0  0  0  0  0  0  0  0  0  0
    1.1262    2.4653    1.5896 C   0  0  1  0  0  0  0  0  0  0  0  0
    1.9784    3.7393    1.6714 C   0  0  0  0  0  0  0  0  0  0  0  0
    2.8763    4.1308    0.1250 S   0  0  0  0  0  0  0  0  0  0  0  0
   -0.1066    2.6576    0.6784 C   0  0  0  0  0  0  0  0  0  0  0  0
   -0.5853    3.7595    0.4227 O   0  0  0  0  0  0  0  0  0  0  0  0
   -0.6897    1.4874    0.2550 N   0  0  0  0  0  0  0  0  0  0  0  0
   -1.9306    1.4378   -0.5164 C   0  0  2  0  0  0  0  0  0  0  0  0
   -2.3984   -0.0345   -0.5250 C   0  0  0  0  0  0  0  0  0  0  0  0
   -1.7788   -0.9230    0.0625 O   0  0  0  0  0  0  0  0  0  0  0  0
   -3.5718   -0.2723   -1.1926 N   0  0  0  0  0  0  0  0  0  0  0  0
   -4.1505   -1.6086   -1.3226 C   0  0  1  0  0  0  0  0  0  0  0  0
   -4.8921   -2.0657   -0.0547 C   0  0  0  0  0  0  0  0  0  0  0  0
   -6.0709   -1.2006    0.3375 C   0  0  0  0  0  0  0  0  0  0  0  0
   -7.3663   -1.5177   -0.0972 C   0  0  0  0  0  0  0  0  0  0  0  0
   -8.4509   -0.7099    0.2529 C   0  0  0  0  0  0  0  0  0  0  0  0
   -8.2394    0.4161    1.0413 C   0  0  0  0  0  0  0  0  0  0  0  0
   -9.2691    1.2319    1.4063 O   0  0  0  0  0  0  0  0  0  0  0  0
   -6.9650    0.7438    1.4855 C   0  0  0  0  0  0  0  0  0  0  0  0
   -5.8819   -0.0634    1.1359 C   0  0  0  0  0  0  0  0  0  0  0  0
   -5.0383   -1.6574   -2.5648 C   0  0  0  0  0  0  0  0  0  0  0  0
   -5.2459   -0.7415   -3.3475 O   0  0  0  0  0  0  0  0  0  0  0  0
   -5.5722   -2.8743   -2.7999 O   0  0  0  0  0  0  0  0  0  0  0  0
   -1.7858    2.0159   -1.9418 C   0  0  1  0  0  0  0  0  0  0  0  0
   -0.8418    1.2177   -2.8362 C   0  0  0  0  0  0  0  0  0  0  0  0
   -3.0740    2.0868   -2.5696 O   0  0  0  0  0  0  0  0  0  0  0  0
    2.6663   -2.4147    1.7142 C   0  0  0  0  0  0  0  0  0  0  0  0
    3.2742   -2.3333    3.1176 C   0  0  0  0  0  0  0  0  0  0  0  0
    1.3076   -3.1206    1.7596 C   0  0  0  0  0  0  0  0  0  0  0  0
    8.8431   -0.8363   -0.6798 H   0  0  0  0  0  0  0  0  0  0  0  0
    8.2461    0.4617   -1.7273 H   0  0  0  0  0  0  0  0  0  0  0  0
    8.3892    0.7156    0.0223 H   0  0  0  0  0  0  0  0  0  0  0  0
    6.6271   -0.9694    0.4442 H   0  0  0  0  0  0  0  0  0  0  0  0
    6.4643   -1.2717   -2.6015 H   0  0  0  0  0  0  0  0  0  0  0  0
    5.4506   -2.1156   -1.4173 H   0  0  0  0  0  0  0  0  0  0  0  0
    7.1818   -2.4417   -1.4814 H   0  0  0  0  0  0  0  0  0  0  0  0
    5.7262    1.0210   -1.7203 H   0  0  0  0  0  0  0  0  0  0  0  0
    5.6835    1.4071    1.2011 H   0  0  0  0  0  0  0  0  0  0  0  0
    5.2535    2.4696    0.0440 H   0  0  0  0  0  0  0  0  0  0  0  0
    4.6440   -0.5883    1.3446 H   0  0  0  0  0  0  0  0  0  0  0  0
    2.0407   -1.2098    0.0420 H   0  0  0  0  0  0  0  0  0  0  0  0
    2.2779    1.3418    0.2056 H   0  0  0  0  0  0  0  0  0  0  0  0
    0.7263    2.2654    2.5915 H   0  0  0  0  0  0  0  0  0  0  0  0
    2.7388    3.6139    2.4501 H   0  0  0  0  0  0  0  0  0  0  0  0
    1.3682    4.6069    1.9425 H   0  0  0  0  0  0  0  0  0  0  0  0
    1.7906    4.4856   -0.5837 H   0  0  0  0  0  0  0  0  0  0  0  0
   -0.4388    0.6272    0.7405 H   0  0  0  0  0  0  0  0  0  0  0  0
   -2.6877    2.0078    0.0373 H   0  0  0  0  0  0  0  0  0  0  0  0
   -3.9479    0.4751   -1.7842 H   0  0  0  0  0  0  0  0  0  0  0  0
   -3.3167   -2.2970   -1.5112 H   0  0  0  0  0  0  0  0  0  0  0  0
   -4.1930   -2.0994    0.7913 H   0  0  0  0  0  0  0  0  0  0  0  0
   -5.2414   -3.0989   -0.1802 H   0  0  0  0  0  0  0  0  0  0  0  0
   -7.5409   -2.4003   -0.7090 H   0  0  0  0  0  0  0  0  0  0  0  0
   -9.4442   -0.9746   -0.0947 H   0  0  0  0  0  0  0  0  0  0  0  0
  -10.0895    0.8847    1.0205 H   0  0  0  0  0  0  0  0  0  0  0  0
   -6.8140    1.6245    2.1030 H   0  0  0  0  0  0  0  0  0  0  0  0
   -4.8889    0.2005    1.4930 H   0  0  0  0  0  0  0  0  0  0  0  0
   -6.0702   -2.7501   -3.6359 H   0  0  0  0  0  0  0  0  0  0  0  0
   -1.4155    3.0449   -1.8800 H   0  0  0  0  0  0  0  0  0  0  0  0
   -0.7505    1.7026   -3.8144 H   0  0  0  0  0  0  0  0  0  0  0  0
   -1.2260    0.2107   -3.0291 H   0  0  0  0  0  0  0  0  0  0  0  0
    0.1578    1.1381   -2.3989 H   0  0  0  0  0  0  0  0  0  0  0  0
   -2.9596    2.5730   -3.4071 H   0  0  0  0  0  0  0  0  0  0  0  0
    3.3298   -3.0614    1.1220 H   0  0  0  0  0  0  0  0  0  0  0  0
    3.3926   -3.3381    3.5385 H   0  0  0  0  0  0  0  0  0  0  0  0
    2.6456   -1.7635    3.8077 H   0  0  0  0  0  0  0  0  0  0  0  0
    4.2654   -1.8705    3.0992 H   0  0  0  0  0  0  0  0  0  0  0  0
    0.5895   -2.5960    2.3959 H   0  0  0  0  0  0  0  0  0  0  0  0
    1.4175   -4.1362    2.1555 H   0  0  0  0  0  0  0  0  0  0  0  0
    0.8769   -3.2027    0.7560 H   0  0  0  0  0  0  0  0  0  0  0  0
  1  2  1  0
  2  3  1  0
  2  4  1  0
  4  5  1  0
  4  6  1  0
  6  7  2  0
  6  8  1  0
  8  9  1  0
  9 10  1  0
 10 11  2  0
 10 12  1  0
 12 13  1  0
 13 14  1  0
 14 15  1  0
 13 16  1  0
 16 17  2  0
 16 18  1  0
 18 19  1  0
 19 20  1  0
 20 21  2  0
 20 22  1  0
 22 23  1  0
 23 24  1  0
 24 25  1  0
 25 26  2  0
 26 27  1  0
 27 28  2  0
 28 29  1  0
 28 30  1  0
 30 31  2  0
 23 32  1  0
 32 33  2  0
 32 34  1  0
 19 35  1  0
 35 36  1  0
 35 37  1  0
  9 38  1  0
 38 39  1  0
 38 40  1  0
 31 25  1  0
  1 41  1  0
  1 42  1  0
  1 43  1  0
  2 44  1  0
  3 45  1  0
  3 46  1  0
  3 47  1  0
  4 48  1  6
  5 49  1  0
  5 50  1  0
  8 51  1  0
  9 52  1  6
 12 53  1  0
 13 54  1  1
 14 55  1  0
 14 56  1  0
 15 57  1  0
 18 58  1  0
 19 59  1  1
 22 60  1  0
 23 61  1  6
 24 62  1  0
 24 63  1  0
 26 64  1  0
 27 65  1  0
 29 66  1  0
 30 67  1  0
 31 68  1  0
 34 69  1  0
 35 70  1  1
 36 71  1  0
 36 72  1  0
 36 73  1  0
 37 74  1  0
 38 75  1  0
 39 76  1  0
 39 77  1  0
 39 78  1  0
 40 79  1  0
 40 80  1  0
 40 81  1  0
M  END
$$$$
VVCTY.sdf
     RDKit          3D

 81 81  0  0  0  0  0  0  0  0999 V2000
    9.1372   -2.8903   -0.4698 C   0  0  0  0  0  0  0  0  0  0  0  0
    8.1357   -2.0825    0.3666 C   0  0  0  0  0  0  0  0  0  0  0  0
    7.1291   -3.0569    0.9952 C   0  0  0  0  0  0  0  0  0  0  0  0
    7.4091   -1.0054   -0.4736 C   0  0  2  0  0  0  0  0  0  0  0  0
    8.3703   -0.1497   -1.2075 N   0  0  0  0  0  0  0  0  0  0  0  0
    6.5302   -0.0654    0.3947 C   0  0  0  0  0  0  0  0  0  0  0  0
    6.6331    0.0451    1.6121 O   0  0  0  0  0  0  0  0  0  0  0  0
    5.6599    0.7046   -0.3625 N   0  0  0  0  0  0  0  0  0  0  0  0
    4.6086    1.4827    0.2988 C   0  0  2  0  0  0  0  0  0  0  0  0
    3.3873    0.5421    0.4296 C   0  0  0  0  0  0  0  0  0  0  0  0
    3.1742   -0.3674   -0.3737 O   0  0  0  0  0  0  0  0  0  0  0  0
    2.5580    0.7980    1.4985 N   0  0  0  0  0  0  0  0  0  0  0  0
    1.2704    0.1124    1.6213 C   0  0  1  0  0  0  0  0  0  0  0  0
    0.8954   -0.1730    3.0818 C   0  0  0  0  0  0  0  0  0  0  0  0
    0.9644    1.2879    4.1759 S   0  0  0  0  0  0  0  0  0  0  0  0
    0.1837    0.9425    0.9079 C   0  0  0  0  0  0  0  0  0  0  0  0
    0.3429    2.1226    0.5995 O   0  0  0  0  0  0  0  0  0  0  0  0
   -0.9822    0.2674    0.6457 N   0  0  0  0  0  0  0  0  0  0  0  0
   -2.1516    0.9148    0.0509 C   0  0  2  0  0  0  0  0  0  0  0  0
   -3.3545   -0.0270    0.2731 C   0  0  0  0  0  0  0  0  0  0  0  0
   -3.2281   -1.1268    0.8130 O   0  0  0  0  0  0  0  0  0  0  0  0
   -4.5659    0.4707   -0.1506 N   0  0  0  0  0  0  0  0  0  0  0  0
   -5.7651   -0.3737   -0.1793 C   0  0  1  0  0  0  0  0  0  0  0  0
   -7.0224    0.4960   -0.0610 C   0  0  0  0  0  0  0  0  0  0  0  0
   -8.2994   -0.2950    0.0934 C   0  0  0  0  0  0  0  0  0  0  0  0
   -9.2042   -0.3986   -0.9727 C   0  0  0  0  0  0  0  0  0  0  0  0
  -10.3771   -1.1415   -0.8326 C   0  0  0  0  0  0  0  0  0  0  0  0
  -10.6482   -1.7815    0.3701 C   0  0  0  0  0  0  0  0  0  0  0  0
  -11.8048   -2.4976    0.4620 O   0  0  0  0  0  0  0  0  0  0  0  0
   -9.7650   -1.6903    1.4404 C   0  0  0  0  0  0  0  0  0  0  0  0
   -8.5910   -0.9465    1.3010 C   0  0  0  0  0  0  0  0  0  0  0  0
   -5.7748   -1.1251   -1.5098 C   0  0  0  0  0  0  0  0  0  0  0  0
   -5.4599   -0.6662   -2.5991 O   0  0  0  0  0  0  0  0  0  0  0  0
   -6.1922   -2.4015   -1.4014 O   0  0  0  0  0  0  0  0  0  0  0  0
   -1.9610    1.2748   -1.4400 C   0  0  1  0  0  0  0  0  0  0  0  0
   -1.7319    0.0630   -2.3387 C   0  0  0  0  0  0  0  0  0  0  0  0
   -3.1075    1.9983   -1.9159 O   0  0  0  0  0  0  0  0  0  0  0  0
    4.3243    2.7799   -0.4904 C   0  0  0  0  0  0  0  0  0  0  0  0
    3.5949    3.8247    0.3565 C   0  0  0  0  0  0  0  0  0  0  0  0
    3.5702    2.5496   -1.8033 C   0  0  0  0  0  0  0  0  0  0  0  0
    8.6471   -3.3604   -1.3293 H   0  0  0  0  0  0  0  0  0  0  0  0
    9.9498   -2.2587   -0.8425 H   0  0  0  0  0  0  0  0  0  0  0  0
    9.5957   -3.6826    0.1321 H   0  0  0  0  0  0  0  0  0  0  0  0
    8.6901   -1.5990    1.1819 H   0  0  0  0  0  0  0  0  0  0  0  0
    6.5451   -3.5727    0.2251 H   0  0  0  0  0  0  0  0  0  0  0  0
    6.4291   -2.5448    1.6616 H   0  0  0  0  0  0  0  0  0  0  0  0
    7.6467   -3.8171    1.5904 H   0  0  0  0  0  0  0  0  0  0  0  0
    6.7599   -1.4978   -1.2083 H   0  0  0  0  0  0  0  0  0  0  0  0
    9.0031    0.2728   -0.5253 H   0  0  0  0  0  0  0  0  0  0  0  0
    7.8614    0.6327   -1.6210 H   0  0  0  0  0  0  0  0  0  0  0  0
    5.3911    0.2952   -1.2516 H   0  0  0  0  0  0  0  0  0  0  0  0
    4.9547    1.7379    1.3077 H   0  0  0  0  0  0  0  0  0  0  0  0
    2.5856    1.7320    1.8918 H   0  0  0  0  0  0  0  0  0  0  0  0
    1.3329   -0.8476    1.0935 H   0  0  0  0  0  0  0  0  0  0  0  0
   -0.1144   -0.5903    3.1488 H   0  0  0  0  0  0  0  0  0  0  0  0
    1.5864   -0.9141    3.4981 H   0  0  0  0  0  0  0  0  0  0  0  0
    2.3026    1.3614    4.2433 H   0  0  0  0  0  0  0  0  0  0  0  0
   -1.1190   -0.6915    0.9568 H   0  0  0  0  0  0  0  0  0  0  0  0
   -2.3539    1.8291    0.6239 H   0  0  0  0  0  0  0  0  0  0  0  0
   -4.4939    1.1898   -0.8762 H   0  0  0  0  0  0  0  0  0  0  0  0
   -5.6975   -1.0986    0.6399 H   0  0  0  0  0  0  0  0  0  0  0  0
   -7.1044    1.1617   -0.9312 H   0  0  0  0  0  0  0  0  0  0  0  0
   -6.9299    1.1647    0.8058 H   0  0  0  0  0  0  0  0  0  0  0  0
   -9.0047    0.0962   -1.9209 H   0  0  0  0  0  0  0  0  0  0  0  0
  -11.0773   -1.2208   -1.6593 H   0  0  0  0  0  0  0  0  0  0  0  0
  -11.8579   -2.8847    1.3510 H   0  0  0  0  0  0  0  0  0  0  0  0
   -9.9693   -2.1872    2.3833 H   0  0  0  0  0  0  0  0  0  0  0  0
   -7.9043   -0.8792    2.1425 H   0  0  0  0  0  0  0  0  0  0  0  0
   -6.1619   -2.7545   -2.3142 H   0  0  0  0  0  0  0  0  0  0  0  0
   -1.1034    1.9488   -1.5424 H   0  0  0  0  0  0  0  0  0  0  0  0
   -0.8512   -0.5074   -2.0298 H   0  0  0  0  0  0  0  0  0  0  0  0
   -1.5852    0.3843   -3.3759 H   0  0  0  0  0  0  0  0  0  0  0  0
   -2.6000   -0.6034   -2.3437 H   0  0  0  0  0  0  0  0  0  0  0  0
   -2.9095    2.2691   -2.8324 H   0  0  0  0  0  0  0  0  0  0  0  0
    5.2968    3.2202   -0.7529 H   0  0  0  0  0  0  0  0  0  0  0  0
    4.1158    3.9954    1.3043 H   0  0  0  0  0  0  0  0  0  0  0  0
    2.5676    3.5268    0.5776 H   0  0  0  0  0  0  0  0  0  0  0  0
    3.5508    4.7827   -0.1733 H   0  0  0  0  0  0  0  0  0  0  0  0
    2.5540    2.1815   -1.6283 H   0  0  0  0  0  0  0  0  0  0  0  0
    4.0916    1.8290   -2.4409 H   0  0  0  0  0  0  0  0  0  0  0  0
    3.4880    3.4861   -2.3659 H   0  0  0  0  0  0  0  0  0  0  0  0
  1  2  1  0
  2  3  1  0
  2  4  1  0
  4  5  1  0
  4  6  1  0
  6  7  2  0
  6  8  1  0
  8  9  1  0
  9 10  1  0
 10 11  2  0
 10 12  1  0
 12 13  1  0
 13 14  1  0
 14 15  1  0
 13 16  1  0
 16 17  2  0
 16 18  1  0
 18 19  1  0
 19 20  1  0
 20 21  2  0
 20 22  1  0
 22 23  1  0
 23 24  1  0
 24 25  1  0
 25 26  2  0
 26 27  1  0
 27 28  2  0
 28 29  1  0
 28 30  1  0
 30 31  2  0
 23 32  1  0
 32 33  2  0
 32 34  1  0
 19 35  1  0
 35 36  1  0
 35 37  1  0
  9 38  1  0
 38 39  1  0
 38 40  1  0
 31 25  1  0
  1 41  1  0
  1 42  1  0
  1 43  1  0
  2 44  1  0
  3 45  1  0
  3 46  1  0
  3 47  1  0
  4 48  1  6
  5 49  1  0
  5 50  1  0
  8 51  1  0
  9 52  1  1
 12 53  1  0
 13 54  1  6
 14 55  1  0
 14 56  1  0
 15 57  1  0
 18 58  1  0
 19 59  1  1
 22 60  1  0
 23 61  1  1
 24 62  1  0
 24 63  1  0
 26 64  1  0
 27 65  1  0
 29 66  1  0
 30 67  1  0
 31 68  1  0
 34 69  1  0
 35 70  1  1
 36 71  1  0
 36 72  1  0
 36 73  1  0
 37 74  1  0
 38 75  1  0
 39 76  1  0
 39 77  1  0
 39 78  1  0
 40 79  1  0
 40 80  1  0
 40 81  1  0
M  END
$$$$
VVCTY.sdf
     RDKit          3D

 81 81  0  0  0  0  0  0  0  0999 V2000
    6.8983   -2.5982    0.1220 C   0  0  0  0  0  0  0  0  0  0  0  0
    8.1237   -1.7965    0.5717 C   0  0  0  0  0  0  0  0  0  0  0  0
    8.1660   -1.7418    2.1031 C   0  0  0  0  0  0  0  0  0  0  0  0
    8.1940   -0.4086   -0.1083 C   0  0  2  0  0  0  0  0  0  0  0  0
    9.4848    0.2580    0.1776 N   0  0  0  0  0  0  0  0  0  0  0  0
    7.0424    0.5374    0.3138 C   0  0  0  0  0  0  0  0  0  0  0  0
    7.1427    1.3172    1.2598 O   0  0  0  0  0  0  0  0  0  0  0  0
    5.9162    0.4535   -0.4682 N   0  0  0  0  0  0  0  0  0  0  0  0
    4.6841    1.1665   -0.1459 C   0  0  2  0  0  0  0  0  0  0  0  0
    3.5212    0.1627   -0.2955 C   0  0  0  0  0  0  0  0  0  0  0  0
    3.6497   -0.9155   -0.8765 O   0  0  0  0  0  0  0  0  0  0  0  0
    2.3278    0.5642    0.2496 N   0  0  0  0  0  0  0  0  0  0  0  0
    1.1046   -0.2331    0.1216 C   0  0  1  0  0  0  0  0  0  0  0  0
    1.1140   -1.4279    1.0839 C   0  0  0  0  0  0  0  0  0  0  0  0
    0.0454   -2.7897    0.5106 S   0  0  0  0  0  0  0  0  0  0  0  0
   -0.0665    0.7253    0.4194 C   0  0  0  0  0  0  0  0  0  0  0  0
    0.1216    1.8773    0.8164 O   0  0  0  0  0  0  0  0  0  0  0  0
   -1.3238    0.2277    0.1885 N   0  0  0  0  0  0  0  0  0  0  0  0
   -2.5266    0.9846    0.5409 C   0  0  2  0  0  0  0  0  0  0  0  0
   -3.7123   -0.0005    0.6110 C   0  0  0  0  0  0  0  0  0  0  0  0
   -3.5585   -1.2155    0.4890 O   0  0  0  0  0  0  0  0  0  0  0  0
   -4.9338    0.5717    0.8729 N   0  0  0  0  0  0  0  0  0  0  0  0
   -6.1594   -0.2106    1.0716 C   0  0  1  0  0  0  0  0  0  0  0  0
   -6.4641   -1.1352   -0.1219 C   0  0  0  0  0  0  0  0  0  0  0  0
   -7.9415   -1.2096   -0.4458 C   0  0  0  0  0  0  0  0  0  0  0  0
   -8.7041   -2.3220   -0.0645 C   0  0  0  0  0  0  0  0  0  0  0  0
  -10.0689   -2.3817   -0.3562 C   0  0  0  0  0  0  0  0  0  0  0  0
  -10.6710   -1.3258   -1.0319 C   0  0  0  0  0  0  0  0  0  0  0  0
  -11.9999   -1.3425   -1.3365 O   0  0  0  0  0  0  0  0  0  0  0  0
   -9.9318   -0.2156   -1.4199 C   0  0  0  0  0  0  0  0  0  0  0  0
   -8.5684   -0.1564   -1.1287 C   0  0  0  0  0  0  0  0  0  0  0  0
   -6.0590   -0.9262    2.4270 C   0  0  0  0  0  0  0  0  0  0  0  0
   -5.4438   -0.5210    3.4055 O   0  0  0  0  0  0  0  0  0  0  0  0
   -6.7887   -2.0526    2.5338 O   0  0  0  0  0  0  0  0  0  0  0  0
   -2.7890    2.1729   -0.4111 C   0  0  1  0  0  0  0  0  0  0  0  0
   -3.2585    1.7620   -1.8028 C   0  0  0  0  0  0  0  0  0  0  0  0
   -3.7722    3.0507    0.1607 O   0  0  0  0  0  0  0  0  0  0  0  0
    4.4684    2.4208   -1.0229 C   0  0  0  0  0  0  0  0  0  0  0  0
    4.4900    2.1113   -2.5238 C   0  0  0  0  0  0  0  0  0  0  0  0
    5.4947    3.5112   -0.7030 C   0  0  0  0  0  0  0  0  0  0  0  0
    5.9687   -2.1733    0.5132 H   0  0  0  0  0  0  0  0  0  0  0  0
    6.9634   -3.6306    0.4829 H   0  0  0  0  0  0  0  0  0  0  0  0
    6.8315   -2.6338   -0.9702 H   0  0  0  0  0  0  0  0  0  0  0  0
    9.0058   -2.3648    0.2443 H   0  0  0  0  0  0  0  0  0  0  0  0
    7.3014   -1.2095    2.5124 H   0  0  0  0  0  0  0  0  0  0  0  0
    9.0743   -1.2499    2.4637 H   0  0  0  0  0  0  0  0  0  0  0  0
    8.1587   -2.7543    2.5221 H   0  0  0  0  0  0  0  0  0  0  0  0
    8.1440   -0.5421   -1.1962 H   0  0  0  0  0  0  0  0  0  0  0  0
    9.5040    1.1434   -0.3312 H   0  0  0  0  0  0  0  0  0  0  0  0
    9.4627    0.5503    1.1597 H   0  0  0  0  0  0  0  0  0  0  0  0
    5.8226   -0.3186   -1.1221 H   0  0  0  0  0  0  0  0  0  0  0  0
    4.7131    1.4591    0.9114 H   0  0  0  0  0  0  0  0  0  0  0  0
    2.2290    1.4872    0.6680 H   0  0  0  0  0  0  0  0  0  0  0  0
    1.0402   -0.5511   -0.9263 H   0  0  0  0  0  0  0  0  0  0  0  0
    2.1209   -1.8431    1.1952 H   0  0  0  0  0  0  0  0  0  0  0  0
    0.7756   -1.1261    2.0812 H   0  0  0  0  0  0  0  0  0  0  0  0
    0.8254   -3.1716   -0.5141 H   0  0  0  0  0  0  0  0  0  0  0  0
   -1.4504   -0.7823    0.0951 H   0  0  0  0  0  0  0  0  0  0  0  0
   -2.3853    1.3646    1.5616 H   0  0  0  0  0  0  0  0  0  0  0  0
   -4.9889    1.5883    0.9179 H   0  0  0  0  0  0  0  0  0  0  0  0
   -6.9550    0.5357    1.1883 H   0  0  0  0  0  0  0  0  0  0  0  0
   -5.9601   -0.7706   -1.0276 H   0  0  0  0  0  0  0  0  0  0  0  0
   -6.0688   -2.1452    0.0442 H   0  0  0  0  0  0  0  0  0  0  0  0
   -8.2382   -3.1505    0.4655 H   0  0  0  0  0  0  0  0  0  0  0  0
  -10.6382   -3.2532   -0.0499 H   0  0  0  0  0  0  0  0  0  0  0  0
  -12.3775   -2.1794   -1.0203 H   0  0  0  0  0  0  0  0  0  0  0  0
  -10.4150    0.6000   -1.9500 H   0  0  0  0  0  0  0  0  0  0  0  0
   -7.9986    0.7155   -1.4425 H   0  0  0  0  0  0  0  0  0  0  0  0
   -6.6089   -2.3560    3.4487 H   0  0  0  0  0  0  0  0  0  0  0  0
   -1.8748    2.7647   -0.5344 H   0  0  0  0  0  0  0  0  0  0  0  0
   -4.2452    1.2889   -1.7784 H   0  0  0  0  0  0  0  0  0  0  0  0
   -3.3641    2.6490   -2.4376 H   0  0  0  0  0  0  0  0  0  0  0  0
   -2.5492    1.0801   -2.2808 H   0  0  0  0  0  0  0  0  0  0  0  0
   -3.2838    3.6889    0.7159 H   0  0  0  0  0  0  0  0  0  0  0  0
    3.4786    2.8365   -0.7935 H   0  0  0  0  0  0  0  0  0  0  0  0
    4.2805    3.0164   -3.1045 H   0  0  0  0  0  0  0  0  0  0  0  0
    5.4649    1.7299   -2.8450 H   0  0  0  0  0  0  0  0  0  0  0  0
    3.7292    1.3700   -2.7875 H   0  0  0  0  0  0  0  0  0  0  0  0
    5.2652    4.4293   -1.2548 H   0  0  0  0  0  0  0  0  0  0  0  0
    6.5098    3.2052   -0.9759 H   0  0  0  0  0  0  0  0  0  0  0  0
    5.4847    3.7547    0.3645 H   0  0  0  0  0  0  0  0  0  0  0  0
  1  2  1  0
  2  3  1  0
  2  4  1  0
  4  5  1  0
  4  6  1  0
  6  7  2  0
  6  8  1  0
  8  9  1  0
  9 10  1  0
 10 11  2  0
 10 12  1  0
 12 13  1  0
 13 14  1  0
 14 15  1  0
 13 16  1  0
 16 17  2  0
 16 18  1  0
 18 19  1  0
 19 20  1  0
 20 21  2  0
 20 22  1  0
 22 23  1  0
 23 24  1  0
 24 25  1  0
 25 26  2  0
 26 27  1  0
 27 28  2  0
 28 29  1  0
 28 30  1  0
 30 31  2  0
 23 32  1  0
 32 33  2  0
 32 34  1  0
 19 35  1  0
 35 36  1  0
 35 37  1  0
  9 38  1  0
 38 39  1  0
 38 40  1  0
 31 25  1  0
  1 41  1  0
  1 42  1  0
  1 43  1  0
  2 44  1  0
  3 45  1  0
  3 46  1  0
  3 47  1  0
  4 48  1  6
  5 49  1  0
  5 50  1  0
  8 51  1  0
  9 52  1  1
 12 53  1  0
 13 54  1  6
 14 55  1  0
 14 56  1  0
 15 57  1  0
 18 58  1  0
 19 59  1  1
 22 60  1  0
 23 61  1  1
 24 62  1  0
 24 63  1  0
 26 64  1  0
 27 65  1  0
 29 66  1  0
 30 67  1  0
 31 68  1  0
 34 69  1  0
 35 70  1  6
 36 71  1  0
 36 72  1  0
 36 73  1  0
 37 74  1  0
 38 75  1  0
 39 76  1  0
 39 77  1  0
 39 78  1  0
 40 79  1  0
 40 80  1  0
 40 81  1  0
M  END
$$$$
VVCTY.sdf
     RDKit          3D

 81 81  0  0  0  0  0  0  0  0999 V2000
    9.3808   -1.2329   -0.8743 C   0  0  0  0  0  0  0  0  0  0  0  0
    8.2727   -0.2678   -0.4327 C   0  0  0  0  0  0  0  0  0  0  0  0
    8.9187    0.9870    0.1687 C   0  0  0  0  0  0  0  0  0  0  0  0
    7.3056   -0.9323    0.5761 C   0  0  2  0  0  0  0  0  0  0  0  0
    6.6903   -2.1573    0.0186 N   0  0  0  0  0  0  0  0  0  0  0  0
    6.1681    0.0068    1.0450 C   0  0  0  0  0  0  0  0  0  0  0  0
    5.9023    0.1721    2.2328 O   0  0  0  0  0  0  0  0  0  0  0  0
    5.4436    0.5902    0.0246 N   0  0  0  0  0  0  0  0  0  0  0  0
    4.1429    1.1993    0.2973 C   0  0  2  0  0  0  0  0  0  0  0  0
    3.1320    0.0651    0.0244 C   0  0  0  0  0  0  0  0  0  0  0  0
    3.2063   -0.6410   -0.9822 O   0  0  0  0  0  0  0  0  0  0  0  0
    2.1722   -0.1033    0.9940 N   0  0  0  0  0  0  0  0  0  0  0  0
    1.0537   -1.0266    0.8056 C   0  0  1  0  0  0  0  0  0  0  0  0
    0.7008   -1.7872    2.0890 C   0  0  0  0  0  0  0  0  0  0  0  0
    2.0117   -2.9569    2.5778 S   0  0  0  0  0  0  0  0  0  0  0  0
   -0.1694   -0.1868    0.3977 C   0  0  0  0  0  0  0  0  0  0  0  0
   -0.3100    0.9817    0.7564 O   0  0  0  0  0  0  0  0  0  0  0  0
   -1.1072   -0.8640   -0.3547 N   0  0  0  0  0  0  0  0  0  0  0  0
   -2.4572   -0.3190   -0.5238 C   0  0  2  0  0  0  0  0  0  0  0  0
   -3.3699   -0.9818    0.5339 C   0  0  0  0  0  0  0  0  0  0  0  0
   -2.9752   -1.8817    1.2762 O   0  0  0  0  0  0  0  0  0  0  0  0
   -4.6484   -0.4721    0.5844 N   0  0  0  0  0  0  0  0  0  0  0  0
   -5.6790   -1.0845    1.4242 C   0  0  1  0  0  0  0  0  0  0  0  0
   -6.7298   -0.0636    1.8899 C   0  0  0  0  0  0  0  0  0  0  0  0
   -7.4976    0.6180    0.7779 C   0  0  0  0  0  0  0  0  0  0  0  0
   -7.0056    1.7932    0.1914 C   0  0  0  0  0  0  0  0  0  0  0  0
   -7.7007    2.4085   -0.8501 C   0  0  0  0  0  0  0  0  0  0  0  0
   -8.8908    1.8557   -1.3050 C   0  0  0  0  0  0  0  0  0  0  0  0
   -9.5366    2.4889   -2.3251 O   0  0  0  0  0  0  0  0  0  0  0  0
   -9.4010    0.6953   -0.7332 C   0  0  0  0  0  0  0  0  0  0  0  0
   -8.7042    0.0780    0.3084 C   0  0  0  0  0  0  0  0  0  0  0  0
   -6.3278   -2.2627    0.6941 C   0  0  0  0  0  0  0  0  0  0  0  0
   -6.1971   -2.5670   -0.4819 O   0  0  0  0  0  0  0  0  0  0  0  0
   -7.1148   -3.0106    1.4978 O   0  0  0  0  0  0  0  0  0  0  0  0
   -2.9889   -0.5089   -1.9590 C   0  0  1  0  0  0  0  0  0  0  0  0
   -3.1473   -1.9660   -2.3811 C   0  0  0  0  0  0  0  0  0  0  0  0
   -4.2470    0.1650   -2.0982 O   0  0  0  0  0  0  0  0  0  0  0  0
    3.8887    2.4052   -0.6307 C   0  0  0  0  0  0  0  0  0  0  0  0
    2.5017    3.0139   -0.4031 C   0  0  0  0  0  0  0  0  0  0  0  0
    4.9531    3.4897   -0.4245 C   0  0  0  0  0  0  0  0  0  0  0  0
   10.0787   -0.7358   -1.5570 H   0  0  0  0  0  0  0  0  0  0  0  0
    8.9701   -2.0978   -1.4047 H   0  0  0  0  0  0  0  0  0  0  0  0
    9.9531   -1.5990   -0.0150 H   0  0  0  0  0  0  0  0  0  0  0  0
    7.7242    0.0390   -1.3324 H   0  0  0  0  0  0  0  0  0  0  0  0
    9.4734    0.7477    1.0824 H   0  0  0  0  0  0  0  0  0  0  0  0
    8.1690    1.7452    0.4153 H   0  0  0  0  0  0  0  0  0  0  0  0
    9.6183    1.4414   -0.5413 H   0  0  0  0  0  0  0  0  0  0  0  0
    7.8722   -1.2208    1.4705 H   0  0  0  0  0  0  0  0  0  0  0  0
    6.1195   -2.5872    0.7509 H   0  0  0  0  0  0  0  0  0  0  0  0
    6.0321   -1.9204   -0.7229 H   0  0  0  0  0  0  0  0  0  0  0  0
    5.5288    0.1613   -0.8899 H   0  0  0  0  0  0  0  0  0  0  0  0
    4.0877    1.5042    1.3485 H   0  0  0  0  0  0  0  0  0  0  0  0
    2.0190    0.6586    1.6462 H   0  0  0  0  0  0  0  0  0  0  0  0
    1.2792   -1.7252   -0.0090 H   0  0  0  0  0  0  0  0  0  0  0  0
   -0.2222   -2.3618    1.9610 H   0  0  0  0  0  0  0  0  0  0  0  0
    0.5391   -1.0916    2.9203 H   0  0  0  0  0  0  0  0  0  0  0  0
    1.4410   -3.3543    3.7247 H   0  0  0  0  0  0  0  0  0  0  0  0
   -1.0572   -1.8772   -0.3317 H   0  0  0  0  0  0  0  0  0  0  0  0
   -2.4506    0.7534   -0.2911 H   0  0  0  0  0  0  0  0  0  0  0  0
   -4.9665   -0.0430   -0.2887 H   0  0  0  0  0  0  0  0  0  0  0  0
   -5.1788   -1.5007    2.3077 H   0  0  0  0  0  0  0  0  0  0  0  0
   -7.4472   -0.5477    2.5655 H   0  0  0  0  0  0  0  0  0  0  0  0
   -6.2367    0.7100    2.4940 H   0  0  0  0  0  0  0  0  0  0  0  0
   -6.0749    2.2375    0.5389 H   0  0  0  0  0  0  0  0  0  0  0  0
   -7.3146    3.3168   -1.3040 H   0  0  0  0  0  0  0  0  0  0  0  0
  -10.3544    2.0038   -2.5219 H   0  0  0  0  0  0  0  0  0  0  0  0
  -10.3316    0.2588   -1.0813 H   0  0  0  0  0  0  0  0  0  0  0  0
   -9.1125   -0.8278    0.7518 H   0  0  0  0  0  0  0  0  0  0  0  0
   -7.4176   -3.7389    0.9148 H   0  0  0  0  0  0  0  0  0  0  0  0
   -2.2923   -0.0220   -2.6524 H   0  0  0  0  0  0  0  0  0  0  0  0
   -2.1958   -2.5038   -2.3404 H   0  0  0  0  0  0  0  0  0  0  0  0
   -3.8725   -2.4903   -1.7530 H   0  0  0  0  0  0  0  0  0  0  0  0
   -3.5283   -2.0241   -3.4067 H   0  0  0  0  0  0  0  0  0  0  0  0
   -4.5451    0.0448   -3.0192 H   0  0  0  0  0  0  0  0  0  0  0  0
    3.9430    2.0770   -1.6774 H   0  0  0  0  0  0  0  0  0  0  0  0
    1.7111    2.3099   -0.6784 H   0  0  0  0  0  0  0  0  0  0  0  0
    2.3634    3.9094   -1.0187 H   0  0  0  0  0  0  0  0  0  0  0  0
    2.3591    3.2986    0.6448 H   0  0  0  0  0  0  0  0  0  0  0  0
    4.7597    4.3521   -1.0717 H   0  0  0  0  0  0  0  0  0  0  0  0
    4.9641    3.8413    0.6129 H   0  0  0  0  0  0  0  0  0  0  0  0
    5.9535    3.1181   -0.6684 H   0  0  0  0  0  0  0  0  0  0  0  0
  1  2  1  0
  2  3  1  0
  2  4  1  0
  4  5  1  0
  4  6  1  0
  6  7  2  0
  6  8  1  0
  8  9  1  0
  9 10  1  0
 10 11  2  0
 10 12  1  0
 12 13  1  0
 13 14  1  0
 14 15  1  0
 13 16  1  0
 16 17  2  0
 16 18  1  0
 18 19  1  0
 19 20  1  0
 20 21  2  0
 20 22  1  0
 22 23  1  0
 23 24  1  0
 24 25  1  0
 25 26  2  0
 26 27  1  0
 27 28  2  0
 28 29  1  0
 28 30  1  0
 30 31  2  0
 23 32  1  0
 32 33  2  0
 32 34  1  0
 19 35  1  0
 35 36  1  0
 35 37  1  0
  9 38  1  0
 38 39  1  0
 38 40  1  0
 31 25  1  0
  1 41  1  0
  1 42  1  0
  1 43  1  0
  2 44  1  0
  3 45  1  0
  3 46  1  0
  3 47  1  0
  4 48  1  1
  5 49  1  0
  5 50  1  0
  8 51  1  0
  9 52  1  1
 12 53  1  0
 13 54  1  6
 14 55  1  0
 14 56  1  0
 15 57  1  0
 18 58  1  0
 19 59  1  1
 22 60  1  0
 23 61  1  1
 24 62  1  0
 24 63  1  0
 26 64  1  0
 27 65  1  0
 29 66  1  0
 30 67  1  0
 31 68  1  0
 34 69  1  0
 35 70  1  6
 36 71  1  0
 36 72  1  0
 36 73  1  0
 37 74  1  0
 38 75  1  0
 39 76  1  0
 39 77  1  0
 39 78  1  0
 40 79  1  0
 40 80  1  0
 40 81  1  0
M  END
$$$$
VVCTY.sdf
     RDKit          3D

 81 81  0  0  0  0  0  0  0  0999 V2000
    8.7234   -0.2103   -1.9217 C   0  0  0  0  0  0  0  0  0  0  0  0
    8.5721   -1.3623   -0.9217 C   0  0  0  0  0  0  0  0  0  0  0  0
    9.2267   -2.6263   -1.4893 C   0  0  0  0  0  0  0  0  0  0  0  0
    7.1055   -1.6192   -0.4989 C   0  0  2  0  0  0  0  0  0  0  0  0
    6.1876   -1.9002   -1.6306 N   0  0  0  0  0  0  0  0  0  0  0  0
    6.5341   -0.4629    0.3626 C   0  0  0  0  0  0  0  0  0  0  0  0
    7.2267    0.3261    0.9976 O   0  0  0  0  0  0  0  0  0  0  0  0
    5.1600   -0.4436    0.3918 N   0  0  0  0  0  0  0  0  0  0  0  0
    4.3810    0.5688    1.0928 C   0  0  2  0  0  0  0  0  0  0  0  0
    2.9913   -0.0441    1.3692 C   0  0  0  0  0  0  0  0  0  0  0  0
    2.4915   -0.9098    0.6492 O   0  0  0  0  0  0  0  0  0  0  0  0
    2.3348    0.4572    2.4717 N   0  0  0  0  0  0  0  0  0  0  0  0
    0.9446    0.0909    2.7258 C   0  0  1  0  0  0  0  0  0  0  0  0
    0.5443    0.2751    4.1955 C   0  0  0  0  0  0  0  0  0  0  0  0
    0.9564    1.9225    4.8809 S   0  0  0  0  0  0  0  0  0  0  0  0
    0.0150    0.9200    1.8197 C   0  0  0  0  0  0  0  0  0  0  0  0
    0.2673    2.0766    1.4868 O   0  0  0  0  0  0  0  0  0  0  0  0
   -1.1470    0.2879    1.4564 N   0  0  0  0  0  0  0  0  0  0  0  0
   -2.1482    0.9111    0.5918 C   0  0  2  0  0  0  0  0  0  0  0  0
   -3.4250    0.0470    0.6699 C   0  0  0  0  0  0  0  0  0  0  0  0
   -3.4634   -1.0043    1.3096 O   0  0  0  0  0  0  0  0  0  0  0  0
   -4.5088    0.5556   -0.0107 N   0  0  0  0  0  0  0  0  0  0  0  0
   -5.7315   -0.2360   -0.1872 C   0  0  1  0  0  0  0  0  0  0  0  0
   -6.9333    0.6944   -0.3902 C   0  0  0  0  0  0  0  0  0  0  0  0
   -8.2636   -0.0198   -0.4124 C   0  0  0  0  0  0  0  0  0  0  0  0
   -8.8139   -0.5323    0.7709 C   0  0  0  0  0  0  0  0  0  0  0  0
  -10.0388   -1.2004    0.7478 C   0  0  0  0  0  0  0  0  0  0  0  0
  -10.7160   -1.3571   -0.4549 C   0  0  0  0  0  0  0  0  0  0  0  0
  -11.9099   -2.0150   -0.4308 O   0  0  0  0  0  0  0  0  0  0  0  0
  -10.1880   -0.8561   -1.6399 C   0  0  0  0  0  0  0  0  0  0  0  0
   -8.9615   -0.1879   -1.6176 C   0  0  0  0  0  0  0  0  0  0  0  0
   -5.5414   -1.1165   -1.4214 C   0  0  0  0  0  0  0  0  0  0  0  0
   -5.0182   -0.7785   -2.4742 O   0  0  0  0  0  0  0  0  0  0  0  0
   -6.0285   -2.3635   -1.2715 O   0  0  0  0  0  0  0  0  0  0  0  0
   -1.6660    1.1000   -0.8653 C   0  0  1  0  0  0  0  0  0  0  0  0
   -1.3485   -0.2095   -1.5815 C   0  0  0  0  0  0  0  0  0  0  0  0
   -2.6600    1.8152   -1.6171 O   0  0  0  0  0  0  0  0  0  0  0  0
    4.3329    1.8908    0.2893 C   0  0  0  0  0  0  0  0  0  0  0  0
    3.8590    3.0751    1.1336 C   0  0  0  0  0  0  0  0  0  0  0  0
    3.4953    1.7875   -0.9894 C   0  0  0  0  0  0  0  0  0  0  0  0
    8.2634    0.7090   -1.5466 H   0  0  0  0  0  0  0  0  0  0  0  0
    8.2700   -0.4489   -2.8893 H   0  0  0  0  0  0  0  0  0  0  0  0
    9.7835    0.0019   -2.1001 H   0  0  0  0  0  0  0  0  0  0  0  0
    9.1390   -1.0861   -0.0225 H   0  0  0  0  0  0  0  0  0  0  0  0
    8.7724   -2.9311   -2.4375 H   0  0  0  0  0  0  0  0  0  0  0  0
   10.2933   -2.4565   -1.6727 H   0  0  0  0  0  0  0  0  0  0  0  0
    9.1403   -3.4598   -0.7845 H   0  0  0  0  0  0  0  0  0  0  0  0
    7.0840   -2.4987    0.1581 H   0  0  0  0  0  0  0  0  0  0  0  0
    6.5592   -2.6774   -2.1751 H   0  0  0  0  0  0  0  0  0  0  0  0
    6.1853   -1.0955   -2.2582 H   0  0  0  0  0  0  0  0  0  0  0  0
    4.6806   -1.0929   -0.2331 H   0  0  0  0  0  0  0  0  0  0  0  0
    4.8788    0.7422    2.0554 H   0  0  0  0  0  0  0  0  0  0  0  0
    2.6411    1.3454    2.8539 H   0  0  0  0  0  0  0  0  0  0  0  0
    0.8176   -0.9663    2.4605 H   0  0  0  0  0  0  0  0  0  0  0  0
    1.0713   -0.4612    4.8117 H   0  0  0  0  0  0  0  0  0  0  0  0
   -0.5303    0.1133    4.3292 H   0  0  0  0  0  0  0  0  0  0  0  0
    0.2760    2.6478    3.9759 H   0  0  0  0  0  0  0  0  0  0  0  0
   -1.3244   -0.6791    1.7183 H   0  0  0  0  0  0  0  0  0  0  0  0
   -2.3968    1.8896    1.0226 H   0  0  0  0  0  0  0  0  0  0  0  0
   -4.2622    1.1938   -0.7727 H   0  0  0  0  0  0  0  0  0  0  0  0
   -5.8603   -0.8758    0.6932 H   0  0  0  0  0  0  0  0  0  0  0  0
   -6.9624    1.4420    0.4142 H   0  0  0  0  0  0  0  0  0  0  0  0
   -6.8108    1.2726   -1.3163 H   0  0  0  0  0  0  0  0  0  0  0  0
   -8.2947   -0.4155    1.7198 H   0  0  0  0  0  0  0  0  0  0  0  0
  -10.4631   -1.5973    1.6657 H   0  0  0  0  0  0  0  0  0  0  0  0
  -12.2663   -2.0424   -1.3335 H   0  0  0  0  0  0  0  0  0  0  0  0
  -10.7113   -0.9740   -2.5833 H   0  0  0  0  0  0  0  0  0  0  0  0
   -8.5551    0.2006   -2.5493 H   0  0  0  0  0  0  0  0  0  0  0  0
   -5.8367   -2.8128   -2.1198 H   0  0  0  0  0  0  0  0  0  0  0  0
   -0.7652    1.7237   -0.8699 H   0  0  0  0  0  0  0  0  0  0  0  0
   -2.2394   -0.8365   -1.6861 H   0  0  0  0  0  0  0  0  0  0  0  0
   -0.9937   -0.0076   -2.5982 H   0  0  0  0  0  0  0  0  0  0  0  0
   -0.5757   -0.7790   -1.0569 H   0  0  0  0  0  0  0  0  0  0  0  0
   -2.2828    1.9718   -2.5036 H   0  0  0  0  0  0  0  0  0  0  0  0
    5.3591    2.1284   -0.0229 H   0  0  0  0  0  0  0  0  0  0  0  0
    4.0087    4.0144    0.5897 H   0  0  0  0  0  0  0  0  0  0  0  0
    2.7954    3.0067    1.3750 H   0  0  0  0  0  0  0  0  0  0  0  0
    4.4236    3.1414    2.0693 H   0  0  0  0  0  0  0  0  0  0  0  0
    2.4350    1.6272   -0.7684 H   0  0  0  0  0  0  0  0  0  0  0  0
    3.8414    0.9658   -1.6246 H   0  0  0  0  0  0  0  0  0  0  0  0
    3.5740    2.7109   -1.5737 H   0  0  0  0  0  0  0  0  0  0  0  0
  1  2  1  0
  2  3  1  0
  2  4  1  0
  4  5  1  0
  4  6  1  0
  6  7  2  0
  6  8  1  0
  8  9  1  0
  9 10  1  0
 10 11  2  0
 10 12  1  0
 12 13  1  0
 13 14  1  0
 14 15  1  0
 13 16  1  0
 16 17  2  0
 16 18  1  0
 18 19  1  0
 19 20  1  0
 20 21  2  0
 20 22  1  0
 22 23  1  0
 23 24  1  0
 24 25  1  0
 25 26  2  0
 26 27  1  0
 27 28  2  0
 28 29  1  0
 28 30  1  0
 30 31  2  0
 23 32  1  0
 32 33  2  0
 32 34  1  0
 19 35  1  0
 35 36  1  0
 35 37  1  0
  9 38  1  0
 38 39  1  0
 38 40  1  0
 31 25  1  0
  1 41  1  0
  1 42  1  0
  1 43  1  0
  2 44  1  0
  3 45  1  0
  3 46  1  0
  3 47  1  0
  4 48  1  1
  5 49  1  0
  5 50  1  0
  8 51  1  0
  9 52  1  1
 12 53  1  0
 13 54  1  6
 14 55  1  0
 14 56  1  0
 15 57  1  0
 18 58  1  0
 19 59  1  1
 22 60  1  0
 23 61  1  1
 24 62  1  0
 24 63  1  0
 26 64  1  0
 27 65  1  0
 29 66  1  0
 30 67  1  0
 31 68  1  0
 34 69  1  0
 35 70  1  1
 36 71  1  0
 36 72  1  0
 36 73  1  0
 37 74  1  0
 38 75  1  0
 39 76  1  0
 39 77  1  0
 39 78  1  0
 40 79  1  0
 40 80  1  0
 40 81  1  0
M  END
$$$$
VVCTY.sdf
     RDKit          3D

 81 81  0  0  0  0  0  0  0  0999 V2000
    7.7741   -1.4573   -2.1348 C   0  0  0  0  0  0  0  0  0  0  0  0
    6.8017   -1.1657   -0.9868 C   0  0  0  0  0  0  0  0  0  0  0  0
    6.5074   -2.4582   -0.2167 C   0  0  0  0  0  0  0  0  0  0  0  0
    7.3228   -0.0193   -0.0869 C   0  0  2  0  0  0  0  0  0  0  0  0
    8.5868   -0.3620    0.6008 N   0  0  0  0  0  0  0  0  0  0  0  0
    6.2661    0.4127    0.9617 C   0  0  0  0  0  0  0  0  0  0  0  0
    6.3943    0.1778    2.1624 O   0  0  0  0  0  0  0  0  0  0  0  0
    5.1910    1.1015    0.4393 N   0  0  0  0  0  0  0  0  0  0  0  0
    3.9959    1.3287    1.2498 C   0  0  2  0  0  0  0  0  0  0  0  0
    3.0065    0.1790    0.9534 C   0  0  0  0  0  0  0  0  0  0  0  0
    3.0858   -0.5145   -0.0613 O   0  0  0  0  0  0  0  0  0  0  0  0
    2.0101    0.0167    1.8910 N   0  0  0  0  0  0  0  0  0  0  0  0
    0.8493   -0.8211    1.5970 C   0  0  1  0  0  0  0  0  0  0  0  0
    0.2495   -1.4396    2.8664 C   0  0  0  0  0  0  0  0  0  0  0  0
   -0.1862   -0.2158    4.1523 S   0  0  0  0  0  0  0  0  0  0  0  0
   -0.1917    0.0191    0.8267 C   0  0  0  0  0  0  0  0  0  0  0  0
   -0.1485    1.2478    0.7648 O   0  0  0  0  0  0  0  0  0  0  0  0
   -1.1833   -0.7074    0.2139 N   0  0  0  0  0  0  0  0  0  0  0  0
   -2.3074   -0.0687   -0.4687 C   0  0  2  0  0  0  0  0  0  0  0  0
   -3.4187   -1.1302   -0.6189 C   0  0  0  0  0  0  0  0  0  0  0  0
   -3.2952   -2.2687   -0.1638 O   0  0  0  0  0  0  0  0  0  0  0  0
   -4.5639   -0.6910   -1.2409 N   0  0  0  0  0  0  0  0  0  0  0  0
   -5.6921   -1.5931   -1.4808 C   0  0  1  0  0  0  0  0  0  0  0  0
   -7.0119   -0.8261   -1.6338 C   0  0  0  0  0  0  0  0  0  0  0  0
   -7.4299   -0.1088   -0.3708 C   0  0  0  0  0  0  0  0  0  0  0  0
   -7.2544    1.2769   -0.2487 C   0  0  0  0  0  0  0  0  0  0  0  0
   -7.6274    1.9344    0.9242 C   0  0  0  0  0  0  0  0  0  0  0  0
   -8.1743    1.2105    1.9761 C   0  0  0  0  0  0  0  0  0  0  0  0
   -8.5233    1.8937    3.1032 O   0  0  0  0  0  0  0  0  0  0  0  0
   -8.3563   -0.1646    1.8760 C   0  0  0  0  0  0  0  0  0  0  0  0
   -7.9834   -0.8233    0.7021 C   0  0  0  0  0  0  0  0  0  0  0  0
   -5.4502   -2.3858   -2.7629 C   0  0  0  0  0  0  0  0  0  0  0  0
   -4.7783   -2.0404   -3.7225 O   0  0  0  0  0  0  0  0  0  0  0  0
   -6.1169   -3.5590   -2.7891 O   0  0  0  0  0  0  0  0  0  0  0  0
   -1.9087    0.5879   -1.8074 C   0  0  1  0  0  0  0  0  0  0  0  0
   -1.5056   -0.4075   -2.8890 C   0  0  0  0  0  0  0  0  0  0  0  0
   -2.9955    1.3866   -2.3026 O   0  0  0  0  0  0  0  0  0  0  0  0
    3.3526    2.7080    0.9813 C   0  0  0  0  0  0  0  0  0  0  0  0
    4.2696    3.8373    1.4610 C   0  0  0  0  0  0  0  0  0  0  0  0
    2.9781    2.9306   -0.4879 C   0  0  0  0  0  0  0  0  0  0  0  0
    7.3508   -2.2010   -2.8186 H   0  0  0  0  0  0  0  0  0  0  0  0
    8.7297   -1.8471   -1.7690 H   0  0  0  0  0  0  0  0  0  0  0  0
    7.9743   -0.5499   -2.7143 H   0  0  0  0  0  0  0  0  0  0  0  0
    5.8565   -0.8451   -1.4430 H   0  0  0  0  0  0  0  0  0  0  0  0
    5.7875   -2.2859    0.5894 H   0  0  0  0  0  0  0  0  0  0  0  0
    7.4145   -2.8889    0.2194 H   0  0  0  0  0  0  0  0  0  0  0  0
    6.0746   -3.2104   -0.8855 H   0  0  0  0  0  0  0  0  0  0  0  0
    7.5256    0.8593   -0.7128 H   0  0  0  0  0  0  0  0  0  0  0  0
    8.3638   -1.0653    1.3111 H   0  0  0  0  0  0  0  0  0  0  0  0
    8.8636    0.4478    1.1603 H   0  0  0  0  0  0  0  0  0  0  0  0
    5.0091    0.9583   -0.5477 H   0  0  0  0  0  0  0  0  0  0  0  0
    4.2624    1.2579    2.3117 H   0  0  0  0  0  0  0  0  0  0  0  0
    1.8287    0.7912    2.5215 H   0  0  0  0  0  0  0  0  0  0  0  0
    1.1650   -1.6334    0.9304 H   0  0  0  0  0  0  0  0  0  0  0  0
   -0.6514   -2.0165    2.6344 H   0  0  0  0  0  0  0  0  0  0  0  0
    0.9753   -2.1269    3.3147 H   0  0  0  0  0  0  0  0  0  0  0  0
   -0.6186   -1.0996    5.0646 H   0  0  0  0  0  0  0  0  0  0  0  0
   -1.2551   -1.7140    0.3388 H   0  0  0  0  0  0  0  0  0  0  0  0
   -2.7058    0.7017    0.2049 H   0  0  0  0  0  0  0  0  0  0  0  0
   -4.4420    0.0952   -1.8820 H   0  0  0  0  0  0  0  0  0  0  0  0
   -5.7399   -2.3042   -0.6471 H   0  0  0  0  0  0  0  0  0  0  0  0
   -7.8198   -1.5113   -1.9238 H   0  0  0  0  0  0  0  0  0  0  0  0
   -6.9350   -0.1039   -2.4581 H   0  0  0  0  0  0  0  0  0  0  0  0
   -6.8250    1.8549   -1.0636 H   0  0  0  0  0  0  0  0  0  0  0  0
   -7.4914    3.0081    1.0174 H   0  0  0  0  0  0  0  0  0  0  0  0
   -8.8850    1.2632    3.7471 H   0  0  0  0  0  0  0  0  0  0  0  0
   -8.7821   -0.7372    2.6936 H   0  0  0  0  0  0  0  0  0  0  0  0
   -8.1271   -1.8995    0.6305 H   0  0  0  0  0  0  0  0  0  0  0  0
   -5.8566   -3.9612   -3.6450 H   0  0  0  0  0  0  0  0  0  0  0  0
   -1.0620    1.2671   -1.6535 H   0  0  0  0  0  0  0  0  0  0  0  0
   -0.6653   -1.0304   -2.5686 H   0  0  0  0  0  0  0  0  0  0  0  0
   -2.3376   -1.0573   -3.1733 H   0  0  0  0  0  0  0  0  0  0  0  0
   -1.2108    0.1269   -3.7990 H   0  0  0  0  0  0  0  0  0  0  0  0
   -2.8617    2.2849   -1.9435 H   0  0  0  0  0  0  0  0  0  0  0  0
    2.4248    2.7762    1.5638 H   0  0  0  0  0  0  0  0  0  0  0  0
    3.7778    4.8093    1.3464 H   0  0  0  0  0  0  0  0  0  0  0  0
    5.2055    3.8665    0.8931 H   0  0  0  0  0  0  0  0  0  0  0  0
    4.5175    3.7132    2.5204 H   0  0  0  0  0  0  0  0  0  0  0  0
    2.2942    2.1556   -0.8472 H   0  0  0  0  0  0  0  0  0  0  0  0
    3.8604    2.9363   -1.1360 H   0  0  0  0  0  0  0  0  0  0  0  0
    2.4723    3.8947   -0.6109 H   0  0  0  0  0  0  0  0  0  0  0  0
  1  2  1  0
  2  3  1  0
  2  4  1  0
  4  5  1  0
  4  6  1  0
  6  7  2  0
  6  8  1  0
  8  9  1  0
  9 10  1  0
 10 11  2  0
 10 12  1  0
 12 13  1  0
 13 14  1  0
 14 15  1  0
 13 16  1  0
 16 17  2  0
 16 18  1  0
 18 19  1  0
 19 20  1  0
 20 21  2  0
 20 22  1  0
 22 23  1  0
 23 24  1  0
 24 25  1  0
 25 26  2  0
 26 27  1  0
 27 28  2  0
 28 29  1  0
 28 30  1  0
 30 31  2  0
 23 32  1  0
 32 33  2  0
 32 34  1  0
 19 35  1  0
 35 36  1  0
 35 37  1  0
  9 38  1  0
 38 39  1  0
 38 40  1  0
 31 25  1  0
  1 41  1  0
  1 42  1  0
  1 43  1  0
  2 44  1  0
  3 45  1  0
  3 46  1  0
  3 47  1  0
  4 48  1  6
  5 49  1  0
  5 50  1  0
  8 51  1  0
  9 52  1  1
 12 53  1  0
 13 54  1  6
 14 55  1  0
 14 56  1  0
 15 57  1  0
 18 58  1  0
 19 59  1  1
 22 60  1  0
 23 61  1  1
 24 62  1  0
 24 63  1  0
 26 64  1  0
 27 65  1  0
 29 66  1  0
 30 67  1  0
 31 68  1  0
 34 69  1  0
 35 70  1  1
 36 71  1  0
 36 72  1  0
 36 73  1  0
 37 74  1  0
 38 75  1  0
 39 76  1  0
 39 77  1  0
 39 78  1  0
 40 79  1  0
 40 80  1  0
 40 81  1  0
M  END
$$$$
VVCTY.sdf
     RDKit          3D

 81 81  0  0  0  0  0  0  0  0999 V2000
    0.2683    2.2792   -3.1364 C   0  0  0  0  0  0  0  0  0  0  0  0
    0.7706    1.5551   -1.8823 C   0  0  0  0  0  0  0  0  0  0  0  0
    1.4832    0.2611   -2.2920 C   0  0  0  0  0  0  0  0  0  0  0  0
    1.6229    2.4905   -0.9934 C   0  0  2  0  0  0  0  0  0  0  0  0
    2.9384    2.8279   -1.6030 N   0  0  0  0  0  0  0  0  0  0  0  0
    1.8508    1.8815    0.4105 C   0  0  0  0  0  0  0  0  0  0  0  0
    1.0389    1.9709    1.3282 O   0  0  0  0  0  0  0  0  0  0  0  0
    3.0322    1.1872    0.5281 N   0  0  0  0  0  0  0  0  0  0  0  0
    3.5188    0.5247    1.7370 C   0  0  2  0  0  0  0  0  0  0  0  0
    2.6660   -0.7369    2.0120 C   0  0  0  0  0  0  0  0  0  0  0  0
    3.1119   -1.8723    1.8540 O   0  0  0  0  0  0  0  0  0  0  0  0
    1.3762   -0.4976    2.4399 N   0  0  0  0  0  0  0  0  0  0  0  0
    0.4109   -1.5920    2.4965 C   0  0  1  0  0  0  0  0  0  0  0  0
   -0.7459   -1.2941    3.4540 C   0  0  0  0  0  0  0  0  0  0  0  0
   -0.1816   -1.1376    5.1809 S   0  0  0  0  0  0  0  0  0  0  0  0
   -0.1811   -1.7837    1.0886 C   0  0  0  0  0  0  0  0  0  0  0  0
   -0.3556   -0.8535    0.3022 O   0  0  0  0  0  0  0  0  0  0  0  0
   -0.5890   -3.0661    0.7998 N   0  0  0  0  0  0  0  0  0  0  0  0
   -0.8840   -3.4707   -0.5864 C   0  0  2  0  0  0  0  0  0  0  0  0
   -2.3013   -3.0644   -1.0627 C   0  0  0  0  0  0  0  0  0  0  0  0
   -3.0277   -3.8277   -1.7001 O   0  0  0  0  0  0  0  0  0  0  0  0
   -2.6574   -1.7473   -0.8409 N   0  0  0  0  0  0  0  0  0  0  0  0
   -3.8201   -1.1819   -1.5294 C   0  0  1  0  0  0  0  0  0  0  0  0
   -4.4974   -0.0526   -0.7396 C   0  0  0  0  0  0  0  0  0  0  0  0
   -3.7516    1.2602   -0.6700 C   0  0  0  0  0  0  0  0  0  0  0  0
   -4.0035    2.2690   -1.6134 C   0  0  0  0  0  0  0  0  0  0  0  0
   -3.3267    3.4890   -1.5519 C   0  0  0  0  0  0  0  0  0  0  0  0
   -2.3980    3.7042   -0.5407 C   0  0  0  0  0  0  0  0  0  0  0  0
   -1.7081    4.8769   -0.4499 O   0  0  0  0  0  0  0  0  0  0  0  0
   -2.1408    2.7216    0.4062 C   0  0  0  0  0  0  0  0  0  0  0  0
   -2.8134    1.4999    0.3410 C   0  0  0  0  0  0  0  0  0  0  0  0
   -3.4255   -0.7515   -2.9444 C   0  0  0  0  0  0  0  0  0  0  0  0
   -2.2988   -0.7018   -3.4154 O   0  0  0  0  0  0  0  0  0  0  0  0
   -4.4878   -0.4243   -3.7131 O   0  0  0  0  0  0  0  0  0  0  0  0
   -0.7059   -5.0059   -0.7147 C   0  0  1  0  0  0  0  0  0  0  0  0
   -0.2879   -5.4217   -2.1210 C   0  0  0  0  0  0  0  0  0  0  0  0
    0.3129   -5.4386    0.2114 O   0  0  0  0  0  0  0  0  0  0  0  0
    3.6509    1.4566    2.9655 C   0  0  0  0  0  0  0  0  0  0  0  0
    4.5170    2.6812    2.6463 C   0  0  0  0  0  0  0  0  0  0  0  0
    4.2619    0.7117    4.1592 C   0  0  0  0  0  0  0  0  0  0  0  0
    1.0862    2.5191   -3.8232 H   0  0  0  0  0  0  0  0  0  0  0  0
   -0.4482    1.6537   -3.6797 H   0  0  0  0  0  0  0  0  0  0  0  0
   -0.2402    3.2121   -2.8733 H   0  0  0  0  0  0  0  0  0  0  0  0
   -0.1144    1.2624   -1.3054 H   0  0  0  0  0  0  0  0  0  0  0  0
    2.3678    0.4606   -2.9054 H   0  0  0  0  0  0  0  0  0  0  0  0
    1.7960   -0.3194   -1.4196 H   0  0  0  0  0  0  0  0  0  0  0  0
    0.8109   -0.3754   -2.8781 H   0  0  0  0  0  0  0  0  0  0  0  0
    1.0865    3.4342   -0.8330 H   0  0  0  0  0  0  0  0  0  0  0  0
    3.3620    3.5657   -1.0370 H   0  0  0  0  0  0  0  0  0  0  0  0
    2.7691    3.2515   -2.5154 H   0  0  0  0  0  0  0  0  0  0  0  0
    3.6241    1.2147   -0.2998 H   0  0  0  0  0  0  0  0  0  0  0  0
    4.5207    0.1596    1.4732 H   0  0  0  0  0  0  0  0  0  0  0  0
    1.0056    0.4164    2.1630 H   0  0  0  0  0  0  0  0  0  0  0  0
    0.9287   -2.5128    2.7914 H   0  0  0  0  0  0  0  0  0  0  0  0
   -1.2438   -0.3573    3.1788 H   0  0  0  0  0  0  0  0  0  0  0  0
   -1.4993   -2.0879    3.4149 H   0  0  0  0  0  0  0  0  0  0  0  0
    0.7698   -0.2228    4.9328 H   0  0  0  0  0  0  0  0  0  0  0  0
   -0.0849   -3.8002    1.2959 H   0  0  0  0  0  0  0  0  0  0  0  0
   -0.1595   -2.9584   -1.2329 H   0  0  0  0  0  0  0  0  0  0  0  0
   -1.8784   -1.1129   -0.6431 H   0  0  0  0  0  0  0  0  0  0  0  0
   -4.5514   -1.9922   -1.6436 H   0  0  0  0  0  0  0  0  0  0  0  0
   -5.4860    0.1433   -1.1770 H   0  0  0  0  0  0  0  0  0  0  0  0
   -4.7002   -0.3947    0.2843 H   0  0  0  0  0  0  0  0  0  0  0  0
   -4.7360    2.1126   -2.4028 H   0  0  0  0  0  0  0  0  0  0  0  0
   -3.5360    4.2503   -2.2962 H   0  0  0  0  0  0  0  0  0  0  0  0
   -2.0540    5.4883   -1.1200 H   0  0  0  0  0  0  0  0  0  0  0  0
   -1.4113    2.8995    1.1918 H   0  0  0  0  0  0  0  0  0  0  0  0
   -2.5950    0.7397    1.0870 H   0  0  0  0  0  0  0  0  0  0  0  0
   -4.0813   -0.2270   -4.5836 H   0  0  0  0  0  0  0  0  0  0  0  0
   -1.6248   -5.5292   -0.4264 H   0  0  0  0  0  0  0  0  0  0  0  0
   -1.0213   -5.1170   -2.8724 H   0  0  0  0  0  0  0  0  0  0  0  0
    0.6837   -4.9883   -2.3827 H   0  0  0  0  0  0  0  0  0  0  0  0
   -0.1687   -6.5092   -2.1772 H   0  0  0  0  0  0  0  0  0  0  0  0
    0.4501   -6.3919    0.0624 H   0  0  0  0  0  0  0  0  0  0  0  0
    2.6639    1.8182    3.2765 H   0  0  0  0  0  0  0  0  0  0  0  0
    4.6331    3.3157    3.5318 H   0  0  0  0  0  0  0  0  0  0  0  0
    5.5165    2.3835    2.3114 H   0  0  0  0  0  0  0  0  0  0  0  0
    4.0651    3.2976    1.8629 H   0  0  0  0  0  0  0  0  0  0  0  0
    4.3789    1.3832    5.0167 H   0  0  0  0  0  0  0  0  0  0  0  0
    3.6245   -0.1177    4.4814 H   0  0  0  0  0  0  0  0  0  0  0  0
    5.2488    0.3064    3.9111 H   0  0  0  0  0  0  0  0  0  0  0  0
  1  2  1  0
  2  3  1  0
  2  4  1  0
  4  5  1  0
  4  6  1  0
  6  7  2  0
  6  8  1  0
  8  9  1  0
  9 10  1  0
 10 11  2  0
 10 12  1  0
 12 13  1  0
 13 14  1  0
 14 15  1  0
 13 16  1  0
 16 17  2  0
 16 18  1  0
 18 19  1  0
 19 20  1  0
 20 21  2  0
 20 22  1  0
 22 23  1  0
 23 24  1  0
 24 25  1  0
 25 26  2  0
 26 27  1  0
 27 28  2  0
 28 29  1  0
 28 30  1  0
 30 31  2  0
 23 32  1  0
 32 33  2  0
 32 34  1  0
 19 35  1  0
 35 36  1  0
 35 37  1  0
  9 38  1  0
 38 39  1  0
 38 40  1  0
 31 25  1  0
  1 41  1  0
  1 42  1  0
  1 43  1  0
  2 44  1  0
  3 45  1  0
  3 46  1  0
  3 47  1  0
  4 48  1  1
  5 49  1  0
  5 50  1  0
  8 51  1  0
  9 52  1  6
 12 53  1  0
 13 54  1  1
 14 55  1  0
 14 56  1  0
 15 57  1  0
 18 58  1  0
 19 59  1  6
 22 60  1  0
 23 61  1  6
 24 62  1  0
 24 63  1  0
 26 64  1  0
 27 65  1  0
 29 66  1  0
 30 67  1  0
 31 68  1  0
 34 69  1  0
 35 70  1  1
 36 71  1  0
 36 72  1  0
 36 73  1  0
 37 74  1  0
 38 75  1  0
 39 76  1  0
 39 77  1  0
 39 78  1  0
 40 79  1  0
 40 80  1  0
 40 81  1  0
M  END
$$$$
VVCTY.sdf
     RDKit          3D

 81 81  0  0  0  0  0  0  0  0999 V2000
    8.9901   -1.1186   -2.2693 C   0  0  0  0  0  0  0  0  0  0  0  0
    8.1147   -1.1206   -1.0081 C   0  0  0  0  0  0  0  0  0  0  0  0
    7.9642   -2.5786   -0.5448 C   0  0  0  0  0  0  0  0  0  0  0  0
    6.7283   -0.4569   -1.2232 C   0  0  2  0  0  0  0  0  0  0  0  0
    6.7918    0.7962   -2.0196 N   0  0  0  0  0  0  0  0  0  0  0  0
    6.0166   -0.1281    0.1273 C   0  0  0  0  0  0  0  0  0  0  0  0
    6.2604   -0.6843    1.1928 O   0  0  0  0  0  0  0  0  0  0  0  0
    5.0341    0.8333   -0.0033 N   0  0  0  0  0  0  0  0  0  0  0  0
    4.0231    1.0501    1.0254 C   0  0  2  0  0  0  0  0  0  0  0  0
    2.8312    0.1192    0.7018 C   0  0  0  0  0  0  0  0  0  0  0  0
    2.5490   -0.2305   -0.4453 O   0  0  0  0  0  0  0  0  0  0  0  0
    2.0801   -0.2694    1.7893 N   0  0  0  0  0  0  0  0  0  0  0  0
    0.8242   -0.9870    1.5984 C   0  0  1  0  0  0  0  0  0  0  0  0
    0.4127   -1.7944    2.8367 C   0  0  0  0  0  0  0  0  0  0  0  0
    0.4122   -0.8277    4.3922 S   0  0  0  0  0  0  0  0  0  0  0  0
   -0.2907    0.0071    1.2224 C   0  0  0  0  0  0  0  0  0  0  0  0
   -0.3188    1.1652    1.6355 O   0  0  0  0  0  0  0  0  0  0  0  0
   -1.2840   -0.5162    0.4340 N   0  0  0  0  0  0  0  0  0  0  0  0
   -2.4310    0.2694   -0.0196 C   0  0  2  0  0  0  0  0  0  0  0  0
   -3.4677   -0.7202   -0.5920 C   0  0  0  0  0  0  0  0  0  0  0  0
   -3.2378   -1.9264   -0.6881 O   0  0  0  0  0  0  0  0  0  0  0  0
   -4.6636   -0.1493   -0.9618 N   0  0  0  0  0  0  0  0  0  0  0  0
   -5.7014   -0.9312   -1.6352 C   0  0  1  0  0  0  0  0  0  0  0  0
   -7.0966   -0.3331   -1.4180 C   0  0  0  0  0  0  0  0  0  0  0  0
   -7.5654   -0.4374    0.0150 C   0  0  0  0  0  0  0  0  0  0  0  0
   -7.4588    0.6600    0.8808 C   0  0  0  0  0  0  0  0  0  0  0  0
   -7.8780    0.5550    2.2076 C   0  0  0  0  0  0  0  0  0  0  0  0
   -8.4009   -0.6451    2.6724 C   0  0  0  0  0  0  0  0  0  0  0  0
   -8.7966   -0.7033    3.9759 O   0  0  0  0  0  0  0  0  0  0  0  0
   -8.5126   -1.7468    1.8310 C   0  0  0  0  0  0  0  0  0  0  0  0
   -8.0935   -1.6421    0.5026 C   0  0  0  0  0  0  0  0  0  0  0  0
   -5.4133   -0.9463   -3.1346 C   0  0  0  0  0  0  0  0  0  0  0  0
   -4.7954   -0.1047   -3.7699 O   0  0  0  0  0  0  0  0  0  0  0  0
   -5.9658   -2.0030   -3.7664 O   0  0  0  0  0  0  0  0  0  0  0  0
   -2.0553    1.3710   -1.0375 C   0  0  1  0  0  0  0  0  0  0  0  0
   -1.4552    0.8309   -2.3323 C   0  0  0  0  0  0  0  0  0  0  0  0
   -3.2129    2.1630   -1.3521 O   0  0  0  0  0  0  0  0  0  0  0  0
    3.6415    2.5461    1.1012 C   0  0  0  0  0  0  0  0  0  0  0  0
    2.8161    3.0306   -0.0952 C   0  0  0  0  0  0  0  0  0  0  0  0
    2.9241    2.8983    2.4063 C   0  0  0  0  0  0  0  0  0  0  0  0
    8.4700   -1.5828   -3.1141 H   0  0  0  0  0  0  0  0  0  0  0  0
    9.2771   -0.1016   -2.5550 H   0  0  0  0  0  0  0  0  0  0  0  0
    9.9198   -1.6732   -2.0998 H   0  0  0  0  0  0  0  0  0  0  0  0
    8.6565   -0.5723   -0.2260 H   0  0  0  0  0  0  0  0  0  0  0  0
    7.4147   -2.6612    0.3957 H   0  0  0  0  0  0  0  0  0  0  0  0
    7.4364   -3.1772   -1.2954 H   0  0  0  0  0  0  0  0  0  0  0  0
    8.9467   -3.0358   -0.3827 H   0  0  0  0  0  0  0  0  0  0  0  0
    6.0678   -1.1493   -1.7602 H   0  0  0  0  0  0  0  0  0  0  0  0
    7.4464    1.4327   -1.5623 H   0  0  0  0  0  0  0  0  0  0  0  0
    7.1852    0.5933   -2.9370 H   0  0  0  0  0  0  0  0  0  0  0  0
    4.7996    1.0530   -0.9687 H   0  0  0  0  0  0  0  0  0  0  0  0
    4.4472    0.7339    1.9863 H   0  0  0  0  0  0  0  0  0  0  0  0
    2.1771    0.2473    2.6564 H   0  0  0  0  0  0  0  0  0  0  0  0
    0.9529   -1.6802    0.7575 H   0  0  0  0  0  0  0  0  0  0  0  0
   -0.5860   -2.2242    2.7067 H   0  0  0  0  0  0  0  0  0  0  0  0
    1.1152   -2.6220    2.9821 H   0  0  0  0  0  0  0  0  0  0  0  0
   -0.4499    0.1227    3.9904 H   0  0  0  0  0  0  0  0  0  0  0  0
   -1.2334   -1.4710    0.0868 H   0  0  0  0  0  0  0  0  0  0  0  0
   -2.8864    0.7328    0.8652 H   0  0  0  0  0  0  0  0  0  0  0  0
   -4.6062    0.8465   -1.1867 H   0  0  0  0  0  0  0  0  0  0  0  0
   -5.6473   -1.9632   -1.2682 H   0  0  0  0  0  0  0  0  0  0  0  0
   -7.8324   -0.8377   -2.0585 H   0  0  0  0  0  0  0  0  0  0  0  0
   -7.1125    0.7192   -1.7334 H   0  0  0  0  0  0  0  0  0  0  0  0
   -7.0448    1.6030    0.5314 H   0  0  0  0  0  0  0  0  0  0  0  0
   -7.7940    1.4062    2.8772 H   0  0  0  0  0  0  0  0  0  0  0  0
   -9.1243   -1.5987    4.1591 H   0  0  0  0  0  0  0  0  0  0  0  0
   -8.9179   -2.6884    2.1870 H   0  0  0  0  0  0  0  0  0  0  0  0
   -8.1804   -2.5086   -0.1497 H   0  0  0  0  0  0  0  0  0  0  0  0
   -5.6853   -1.8979   -4.7002 H   0  0  0  0  0  0  0  0  0  0  0  0
   -1.3298    2.0525   -0.5796 H   0  0  0  0  0  0  0  0  0  0  0  0
   -1.1961    1.6577   -3.0028 H   0  0  0  0  0  0  0  0  0  0  0  0
   -0.5493    0.2472   -2.1439 H   0  0  0  0  0  0  0  0  0  0  0  0
   -2.1699    0.2062   -2.8763 H   0  0  0  0  0  0  0  0  0  0  0  0
   -2.9069    2.8853   -1.9326 H   0  0  0  0  0  0  0  0  0  0  0  0
    4.5786    3.1207    1.0977 H   0  0  0  0  0  0  0  0  0  0  0  0
    1.8292    2.5574   -0.1259 H   0  0  0  0  0  0  0  0  0  0  0  0
    2.6596    4.1134   -0.0376 H   0  0  0  0  0  0  0  0  0  0  0  0
    3.3253    2.8234   -1.0414 H   0  0  0  0  0  0  0  0  0  0  0  0
    2.8207    3.9847    2.5035 H   0  0  0  0  0  0  0  0  0  0  0  0
    1.9192    2.4706    2.4489 H   0  0  0  0  0  0  0  0  0  0  0  0
    3.4886    2.5413    3.2738 H   0  0  0  0  0  0  0  0  0  0  0  0
  1  2  1  0
  2  3  1  0
  2  4  1  0
  4  5  1  0
  4  6  1  0
  6  7  2  0
  6  8  1  0
  8  9  1  0
  9 10  1  0
 10 11  2  0
 10 12  1  0
 12 13  1  0
 13 14  1  0
 14 15  1  0
 13 16  1  0
 16 17  2  0
 16 18  1  0
 18 19  1  0
 19 20  1  0
 20 21  2  0
 20 22  1  0
 22 23  1  0
 23 24  1  0
 24 25  1  0
 25 26  2  0
 26 27  1  0
 27 28  2  0
 28 29  1  0
 28 30  1  0
 30 31  2  0
 23 32  1  0
 32 33  2  0
 32 34  1  0
 19 35  1  0
 35 36  1  0
 35 37  1  0
  9 38  1  0
 38 39  1  0
 38 40  1  0
 31 25  1  0
  1 41  1  0
  1 42  1  0
  1 43  1  0
  2 44  1  0
  3 45  1  0
  3 46  1  0
  3 47  1  0
  4 48  1  6
  5 49  1  0
  5 50  1  0
  8 51  1  0
  9 52  1  1
 12 53  1  0
 13 54  1  6
 14 55  1  0
 14 56  1  0
 15 57  1  0
 18 58  1  0
 19 59  1  1
 22 60  1  0
 23 61  1  1
 24 62  1  0
 24 63  1  0
 26 64  1  0
 27 65  1  0
 29 66  1  0
 30 67  1  0
 31 68  1  0
 34 69  1  0
 35 70  1  1
 36 71  1  0
 36 72  1  0
 36 73  1  0
 37 74  1  0
 38 75  1  0
 39 76  1  0
 39 77  1  0
 39 78  1  0
 40 79  1  0
 40 80  1  0
 40 81  1  0
M  END
$$$$
VVCTY.sdf
     RDKit          3D

 81 81  0  0  0  0  0  0  0  0999 V2000
    6.6747    0.4165   -2.1246 C   0  0  0  0  0  0  0  0  0  0  0  0
    7.3687    1.2210   -1.0228 C   0  0  0  0  0  0  0  0  0  0  0  0
    6.7798    2.6309   -0.9069 C   0  0  0  0  0  0  0  0  0  0  0  0
    7.4735    0.4834    0.3312 C   0  0  2  0  0  0  0  0  0  0  0  0
    8.4482   -0.6262    0.1662 N   0  0  0  0  0  0  0  0  0  0  0  0
    6.2003   -0.1203    1.0080 C   0  0  0  0  0  0  0  0  0  0  0  0
    6.2954   -1.0980    1.7569 O   0  0  0  0  0  0  0  0  0  0  0  0
    5.0121    0.5490    0.8485 N   0  0  0  0  0  0  0  0  0  0  0  0
    3.7699    0.0100    1.4067 C   0  0  2  0  0  0  0  0  0  0  0  0
    3.0096   -0.7196    0.2779 C   0  0  0  0  0  0  0  0  0  0  0  0
    3.2091   -0.4792   -0.9130 O   0  0  0  0  0  0  0  0  0  0  0  0
    2.0579   -1.6183    0.7080 N   0  0  0  0  0  0  0  0  0  0  0  0
    1.0793   -2.1640   -0.2306 C   0  0  1  0  0  0  0  0  0  0  0  0
    0.6074   -3.5621    0.1941 C   0  0  0  0  0  0  0  0  0  0  0  0
   -0.1892   -3.6165    1.8381 S   0  0  0  0  0  0  0  0  0  0  0  0
   -0.0957   -1.1695   -0.3569 C   0  0  0  0  0  0  0  0  0  0  0  0
   -0.2819   -0.2515    0.4423 O   0  0  0  0  0  0  0  0  0  0  0  0
   -0.9421   -1.3996   -1.4234 N   0  0  0  0  0  0  0  0  0  0  0  0
   -2.2660   -0.7696   -1.4377 C   0  0  2  0  0  0  0  0  0  0  0  0
   -3.2127   -1.6835   -0.6286 C   0  0  0  0  0  0  0  0  0  0  0  0
   -2.9309   -2.8518   -0.3596 O   0  0  0  0  0  0  0  0  0  0  0  0
   -4.3790   -1.0831   -0.2097 N   0  0  0  0  0  0  0  0  0  0  0  0
   -5.4805   -1.8621    0.3680 C   0  0  1  0  0  0  0  0  0  0  0  0
   -6.1206   -1.1623    1.5762 C   0  0  0  0  0  0  0  0  0  0  0  0
   -6.5549    0.2662    1.3270 C   0  0  0  0  0  0  0  0  0  0  0  0
   -5.6843    1.3301    1.6125 C   0  0  0  0  0  0  0  0  0  0  0  0
   -6.0687    2.6496    1.3657 C   0  0  0  0  0  0  0  0  0  0  0  0
   -7.3266    2.9056    0.8320 C   0  0  0  0  0  0  0  0  0  0  0  0
   -7.7444    4.1774    0.5747 O   0  0  0  0  0  0  0  0  0  0  0  0
   -8.2025    1.8662    0.5446 C   0  0  0  0  0  0  0  0  0  0  0  0
   -7.8199    0.5473    0.7935 C   0  0  0  0  0  0  0  0  0  0  0  0
   -6.5037   -2.1373   -0.7328 C   0  0  0  0  0  0  0  0  0  0  0  0
   -6.5471   -1.6035   -1.8318 O   0  0  0  0  0  0  0  0  0  0  0  0
   -7.4215   -3.0630   -0.3887 O   0  0  0  0  0  0  0  0  0  0  0  0
   -2.7881   -0.5828   -2.8758 C   0  0  1  0  0  0  0  0  0  0  0  0
   -2.2606    0.7074   -3.4976 C   0  0  0  0  0  0  0  0  0  0  0  0
   -2.3923   -1.6846   -3.7047 O   0  0  0  0  0  0  0  0  0  0  0  0
    2.8917    1.1096    2.0472 C   0  0  0  0  0  0  0  0  0  0  0  0
    3.5658    1.6831    3.2975 C   0  0  0  0  0  0  0  0  0  0  0  0
    2.5374    2.2451    1.0811 C   0  0  0  0  0  0  0  0  0  0  0  0
    6.7396    0.9471   -3.0810 H   0  0  0  0  0  0  0  0  0  0  0  0
    5.6157    0.2540   -1.9139 H   0  0  0  0  0  0  0  0  0  0  0  0
    7.1462   -0.5617   -2.2619 H   0  0  0  0  0  0  0  0  0  0  0  0
    8.4009    1.3826   -1.3700 H   0  0  0  0  0  0  0  0  0  0  0  0
    6.9578    3.1882   -1.8339 H   0  0  0  0  0  0  0  0  0  0  0  0
    7.2581    3.1880   -0.0945 H   0  0  0  0  0  0  0  0  0  0  0  0
    5.7020    2.6384   -0.7374 H   0  0  0  0  0  0  0  0  0  0  0  0
    7.8909    1.1703    1.0794 H   0  0  0  0  0  0  0  0  0  0  0  0
    9.3934   -0.2551    0.2315 H   0  0  0  0  0  0  0  0  0  0  0  0
    8.3305   -1.2547    0.9688 H   0  0  0  0  0  0  0  0  0  0  0  0
    4.8789    0.9945   -0.0486 H   0  0  0  0  0  0  0  0  0  0  0  0
    4.0090   -0.7409    2.1698 H   0  0  0  0  0  0  0  0  0  0  0  0
    1.7437   -1.5474    1.6703 H   0  0  0  0  0  0  0  0  0  0  0  0
    1.5499   -2.2398   -1.2187 H   0  0  0  0  0  0  0  0  0  0  0  0
   -0.0973   -3.9780   -0.5326 H   0  0  0  0  0  0  0  0  0  0  0  0
    1.4708   -4.2351    0.2371 H   0  0  0  0  0  0  0  0  0  0  0  0
   -1.3930   -3.1710    1.4330 H   0  0  0  0  0  0  0  0  0  0  0  0
   -0.9448   -2.3346   -1.8175 H   0  0  0  0  0  0  0  0  0  0  0  0
   -2.2284    0.1944   -0.9155 H   0  0  0  0  0  0  0  0  0  0  0  0
   -4.6564   -0.2135   -0.6535 H   0  0  0  0  0  0  0  0  0  0  0  0
   -5.0917   -2.8365    0.6863 H   0  0  0  0  0  0  0  0  0  0  0  0
   -5.4020   -1.1634    2.4068 H   0  0  0  0  0  0  0  0  0  0  0  0
   -6.9844   -1.7364    1.9358 H   0  0  0  0  0  0  0  0  0  0  0  0
   -4.6986    1.1356    2.0323 H   0  0  0  0  0  0  0  0  0  0  0  0
   -5.3799    3.4560    1.5968 H   0  0  0  0  0  0  0  0  0  0  0  0
   -7.0517    4.7960    0.8587 H   0  0  0  0  0  0  0  0  0  0  0  0
   -9.1834    2.0826    0.1304 H   0  0  0  0  0  0  0  0  0  0  0  0
   -8.5209   -0.2537    0.5698 H   0  0  0  0  0  0  0  0  0  0  0  0
   -7.9751   -3.1628   -1.1926 H   0  0  0  0  0  0  0  0  0  0  0  0
   -3.8826   -0.5495   -2.8909 H   0  0  0  0  0  0  0  0  0  0  0  0
   -2.5925    1.5837   -2.9325 H   0  0  0  0  0  0  0  0  0  0  0  0
   -1.1658    0.7106   -3.5366 H   0  0  0  0  0  0  0  0  0  0  0  0
   -2.6128    0.8041   -4.5303 H   0  0  0  0  0  0  0  0  0  0  0  0
   -1.4578   -1.5482   -3.9435 H   0  0  0  0  0  0  0  0  0  0  0  0
    1.9466    0.6536    2.3697 H   0  0  0  0  0  0  0  0  0  0  0  0
    3.7943    0.8882    4.0152 H   0  0  0  0  0  0  0  0  0  0  0  0
    4.4998    2.1994    3.0520 H   0  0  0  0  0  0  0  0  0  0  0  0
    2.9068    2.4018    3.7964 H   0  0  0  0  0  0  0  0  0  0  0  0
    1.8713    2.9664    1.5674 H   0  0  0  0  0  0  0  0  0  0  0  0
    2.0177    1.8674    0.1953 H   0  0  0  0  0  0  0  0  0  0  0  0
    3.4276    2.7895    0.7499 H   0  0  0  0  0  0  0  0  0  0  0  0
  1  2  1  0
  2  3  1  0
  2  4  1  0
  4  5  1  0
  4  6  1  0
  6  7  2  0
  6  8  1  0
  8  9  1  0
  9 10  1  0
 10 11  2  0
 10 12  1  0
 12 13  1  0
 13 14  1  0
 14 15  1  0
 13 16  1  0
 16 17  2  0
 16 18  1  0
 18 19  1  0
 19 20  1  0
 20 21  2  0
 20 22  1  0
 22 23  1  0
 23 24  1  0
 24 25  1  0
 25 26  2  0
 26 27  1  0
 27 28  2  0
 28 29  1  0
 28 30  1  0
 30 31  2  0
 23 32  1  0
 32 33  2  0
 32 34  1  0
 19 35  1  0
 35 36  1  0
 35 37  1  0
  9 38  1  0
 38 39  1  0
 38 40  1  0
 31 25  1  0
  1 41  1  0
  1 42  1  0
  1 43  1  0
  2 44  1  0
  3 45  1  0
  3 46  1  0
  3 47  1  0
  4 48  1  1
  5 49  1  0
  5 50  1  0
  8 51  1  0
  9 52  1  1
 12 53  1  0
 13 54  1  6
 14 55  1  0
 14 56  1  0
 15 57  1  0
 18 58  1  0
 19 59  1  1
 22 60  1  0
 23 61  1  1
 24 62  1  0
 24 63  1  0
 26 64  1  0
 27 65  1  0
 29 66  1  0
 30 67  1  0
 31 68  1  0
 34 69  1  0
 35 70  1  1
 36 71  1  0
 36 72  1  0
 36 73  1  0
 37 74  1  0
 38 75  1  0
 39 76  1  0
 39 77  1  0
 39 78  1  0
 40 79  1  0
 40 80  1  0
 40 81  1  0
M  END
$$$$
VVCTY.sdf
     RDKit          3D

 81 81  0  0  0  0  0  0  0  0999 V2000
    9.6970   -1.6611    0.0737 C   0  0  0  0  0  0  0  0  0  0  0  0
    8.7125   -0.4986   -0.1083 C   0  0  0  0  0  0  0  0  0  0  0  0
    9.3439    0.7758    0.4689 C   0  0  0  0  0  0  0  0  0  0  0  0
    7.3465   -0.7860    0.5584 C   0  0  2  0  0  0  0  0  0  0  0  0
    6.7652   -2.0599    0.0728 N   0  0  0  0  0  0  0  0  0  0  0  0
    6.3042    0.3237    0.2641 C   0  0  0  0  0  0  0  0  0  0  0  0
    6.3148    0.9971   -0.7600 O   0  0  0  0  0  0  0  0  0  0  0  0
    5.3247    0.3987    1.2450 N   0  0  0  0  0  0  0  0  0  0  0  0
    4.0153    1.0291    1.0232 C   0  0  2  0  0  0  0  0  0  0  0  0
    3.1485   -0.0146    0.2635 C   0  0  0  0  0  0  0  0  0  0  0  0
    3.6265   -0.9335   -0.4033 O   0  0  0  0  0  0  0  0  0  0  0  0
    1.7912    0.1098    0.4435 N   0  0  0  0  0  0  0  0  0  0  0  0
    0.8283   -0.7694   -0.2196 C   0  0  1  0  0  0  0  0  0  0  0  0
    0.2931   -1.8803    0.6970 C   0  0  0  0  0  0  0  0  0  0  0  0
    1.5868   -2.9590    1.4031 S   0  0  0  0  0  0  0  0  0  0  0  0
   -0.3524    0.1125   -0.6570 C   0  0  0  0  0  0  0  0  0  0  0  0
   -0.5887    1.2009   -0.1309 O   0  0  0  0  0  0  0  0  0  0  0  0
   -1.1383   -0.4191   -1.6514 N   0  0  0  0  0  0  0  0  0  0  0  0
   -2.4560    0.1431   -1.9416 C   0  0  2  0  0  0  0  0  0  0  0  0
   -3.4604   -0.4504   -0.9271 C   0  0  0  0  0  0  0  0  0  0  0  0
   -3.2130   -1.4469   -0.2486 O   0  0  0  0  0  0  0  0  0  0  0  0
   -4.6623    0.2261   -0.8390 N   0  0  0  0  0  0  0  0  0  0  0  0
   -5.7987   -0.3604   -0.1107 C   0  0  1  0  0  0  0  0  0  0  0  0
   -6.6717    0.7497    0.4853 C   0  0  0  0  0  0  0  0  0  0  0  0
   -7.7707    0.2467    1.3899 C   0  0  0  0  0  0  0  0  0  0  0  0
   -9.1100    0.2842    0.9742 C   0  0  0  0  0  0  0  0  0  0  0  0
  -10.1256   -0.1875    1.8095 C   0  0  0  0  0  0  0  0  0  0  0  0
   -9.8004   -0.6973    3.0618 C   0  0  0  0  0  0  0  0  0  0  0  0
  -10.7594   -1.1674    3.9090 O   0  0  0  0  0  0  0  0  0  0  0  0
   -8.4799   -0.7422    3.4902 C   0  0  0  0  0  0  0  0  0  0  0  0
   -7.4650   -0.2704    2.6568 C   0  0  0  0  0  0  0  0  0  0  0  0
   -6.5938   -1.1636   -1.1377 C   0  0  0  0  0  0  0  0  0  0  0  0
   -6.7666   -0.8438   -2.3072 O   0  0  0  0  0  0  0  0  0  0  0  0
   -7.1291   -2.2954   -0.6461 O   0  0  0  0  0  0  0  0  0  0  0  0
   -2.8938   -0.1952   -3.3818 C   0  0  1  0  0  0  0  0  0  0  0  0
   -2.1346    0.6403   -4.4072 C   0  0  0  0  0  0  0  0  0  0  0  0
   -2.6412   -1.5807   -3.6530 O   0  0  0  0  0  0  0  0  0  0  0  0
    4.0495    2.4475    0.3981 C   0  0  0  0  0  0  0  0  0  0  0  0
    4.9909    3.3733    1.1837 C   0  0  0  0  0  0  0  0  0  0  0  0
    2.6691    3.1127    0.3400 C   0  0  0  0  0  0  0  0  0  0  0  0
   10.6719   -1.4156   -0.3614 H   0  0  0  0  0  0  0  0  0  0  0  0
    9.8487   -1.8891    1.1343 H   0  0  0  0  0  0  0  0  0  0  0  0
    9.3414   -2.5691   -0.4234 H   0  0  0  0  0  0  0  0  0  0  0  0
    8.5704   -0.3428   -1.1860 H   0  0  0  0  0  0  0  0  0  0  0  0
    8.7132    1.6529    0.2956 H   0  0  0  0  0  0  0  0  0  0  0  0
    9.5053    0.6831    1.5485 H   0  0  0  0  0  0  0  0  0  0  0  0
   10.3134    0.9747   -0.0008 H   0  0  0  0  0  0  0  0  0  0  0  0
    7.4819   -0.8627    1.6443 H   0  0  0  0  0  0  0  0  0  0  0  0
    6.7596   -2.0250   -0.9506 H   0  0  0  0  0  0  0  0  0  0  0  0
    5.7678   -2.0857    0.3060 H   0  0  0  0  0  0  0  0  0  0  0  0
    5.3091   -0.3910    1.8795 H   0  0  0  0  0  0  0  0  0  0  0  0
    3.5849    1.1076    2.0311 H   0  0  0  0  0  0  0  0  0  0  0  0
    1.4013    0.8929    0.9580 H   0  0  0  0  0  0  0  0  0  0  0  0
    1.2888   -1.1990   -1.1174 H   0  0  0  0  0  0  0  0  0  0  0  0
   -0.2701   -1.4527    1.5345 H   0  0  0  0  0  0  0  0  0  0  0  0
   -0.4000   -2.5220    0.1427 H   0  0  0  0  0  0  0  0  0  0  0  0
    2.4072   -2.9359    0.3377 H   0  0  0  0  0  0  0  0  0  0  0  0
   -1.0634   -1.4089   -1.8674 H   0  0  0  0  0  0  0  0  0  0  0  0
   -2.4342    1.2289   -1.7879 H   0  0  0  0  0  0  0  0  0  0  0  0
   -4.9043    0.8579   -1.5930 H   0  0  0  0  0  0  0  0  0  0  0  0
   -5.4177   -1.0385    0.6605 H   0  0  0  0  0  0  0  0  0  0  0  0
   -7.1070    1.3594   -0.3183 H   0  0  0  0  0  0  0  0  0  0  0  0
   -6.0452    1.4413    1.0650 H   0  0  0  0  0  0  0  0  0  0  0  0
   -9.3742    0.6815   -0.0036 H   0  0  0  0  0  0  0  0  0  0  0  0
  -11.1551   -0.1484    1.4685 H   0  0  0  0  0  0  0  0  0  0  0  0
  -11.6257   -1.0711    3.4813 H   0  0  0  0  0  0  0  0  0  0  0  0
   -8.2404   -1.1435    4.4709 H   0  0  0  0  0  0  0  0  0  0  0  0
   -6.4353   -0.3105    3.0063 H   0  0  0  0  0  0  0  0  0  0  0  0
   -7.5911   -2.7154   -1.4001 H   0  0  0  0  0  0  0  0  0  0  0  0
   -3.9685   -0.0256   -3.5093 H   0  0  0  0  0  0  0  0  0  0  0  0
   -1.0596    0.4328   -4.3715 H   0  0  0  0  0  0  0  0  0  0  0  0
   -2.4660    0.3920   -5.4214 H   0  0  0  0  0  0  0  0  0  0  0  0
   -2.2935    1.7104   -4.2436 H   0  0  0  0  0  0  0  0  0  0  0  0
   -2.9621   -1.7682   -4.5535 H   0  0  0  0  0  0  0  0  0  0  0  0
    4.4053    2.3906   -0.6363 H   0  0  0  0  0  0  0  0  0  0  0  0
    4.6702    3.4669    2.2270 H   0  0  0  0  0  0  0  0  0  0  0  0
    6.0218    3.0080    1.1781 H   0  0  0  0  0  0  0  0  0  0  0  0
    5.0046    4.3770    0.7447 H   0  0  0  0  0  0  0  0  0  0  0  0
    2.1797    3.1061    1.3195 H   0  0  0  0  0  0  0  0  0  0  0  0
    2.7515    4.1556    0.0138 H   0  0  0  0  0  0  0  0  0  0  0  0
    2.0189    2.6126   -0.3832 H   0  0  0  0  0  0  0  0  0  0  0  0
  1  2  1  0
  2  3  1  0
  2  4  1  0
  4  5  1  0
  4  6  1  0
  6  7  2  0
  6  8  1  0
  8  9  1  0
  9 10  1  0
 10 11  2  0
 10 12  1  0
 12 13  1  0
 13 14  1  0
 14 15  1  0
 13 16  1  0
 16 17  2  0
 16 18  1  0
 18 19  1  0
 19 20  1  0
 20 21  2  0
 20 22  1  0
 22 23  1  0
 23 24  1  0
 24 25  1  0
 25 26  2  0
 26 27  1  0
 27 28  2  0
 28 29  1  0
 28 30  1  0
 30 31  2  0
 23 32  1  0
 32 33  2  0
 32 34  1  0
 19 35  1  0
 35 36  1  0
 35 37  1  0
  9 38  1  0
 38 39  1  0
 38 40  1  0
 31 25  1  0
  1 41  1  0
  1 42  1  0
  1 43  1  0
  2 44  1  0
  3 45  1  0
  3 46  1  0
  3 47  1  0
  4 48  1  1
  5 49  1  0
  5 50  1  0
  8 51  1  0
  9 52  1  1
 12 53  1  0
 13 54  1  6
 14 55  1  0
 14 56  1  0
 15 57  1  0
 18 58  1  0
 19 59  1  6
 22 60  1  0
 23 61  1  1
 24 62  1  0
 24 63  1  0
 26 64  1  0
 27 65  1  0
 29 66  1  0
 30 67  1  0
 31 68  1  0
 34 69  1  0
 35 70  1  1
 36 71  1  0
 36 72  1  0
 36 73  1  0
 37 74  1  0
 38 75  1  0
 39 76  1  0
 39 77  1  0
 39 78  1  0
 40 79  1  0
 40 80  1  0
 40 81  1  0
M  END
$$$$
VVCTY.sdf
     RDKit          3D

 81 81  0  0  0  0  0  0  0  0999 V2000
    7.5818   -1.4842    3.0346 C   0  0  0  0  0  0  0  0  0  0  0  0
    7.9160   -1.5363    1.5395 C   0  0  0  0  0  0  0  0  0  0  0  0
    6.8912   -2.4155    0.8152 C   0  0  0  0  0  0  0  0  0  0  0  0
    8.0621   -0.1429    0.8825 C   0  0  2  0  0  0  0  0  0  0  0  0
    9.2150    0.5916    1.4527 N   0  0  0  0  0  0  0  0  0  0  0  0
    6.7943    0.7362    1.0211 C   0  0  0  0  0  0  0  0  0  0  0  0
    6.6597    1.5675    1.9178 O   0  0  0  0  0  0  0  0  0  0  0  0
    5.8402    0.5235    0.0593 N   0  0  0  0  0  0  0  0  0  0  0  0
    4.5570    1.2227    0.0490 C   0  0  2  0  0  0  0  0  0  0  0  0
    3.5540    0.2731   -0.6390 C   0  0  0  0  0  0  0  0  0  0  0  0
    3.9184   -0.6055   -1.4212 O   0  0  0  0  0  0  0  0  0  0  0  0
    2.2378    0.4782   -0.3244 N   0  0  0  0  0  0  0  0  0  0  0  0
    1.1299   -0.2717   -0.9236 C   0  0  1  0  0  0  0  0  0  0  0  0
    0.8079   -1.5615   -0.1544 C   0  0  0  0  0  0  0  0  0  0  0  0
    1.8220   -2.9833   -0.6814 S   0  0  0  0  0  0  0  0  0  0  0  0
   -0.0935    0.6626   -0.8846 C   0  0  0  0  0  0  0  0  0  0  0  0
   -0.1411    1.6363   -0.1331 O   0  0  0  0  0  0  0  0  0  0  0  0
   -1.1132    0.3241   -1.7497 N   0  0  0  0  0  0  0  0  0  0  0  0
   -2.4361    0.9437   -1.6158 C   0  0  2  0  0  0  0  0  0  0  0  0
   -3.3399   -0.0293   -0.8273 C   0  0  0  0  0  0  0  0  0  0  0  0
   -2.9812   -1.1701   -0.5377 O   0  0  0  0  0  0  0  0  0  0  0  0
   -4.5740    0.4828   -0.4916 N   0  0  0  0  0  0  0  0  0  0  0  0
   -5.6155   -0.3719    0.0907 C   0  0  1  0  0  0  0  0  0  0  0  0
   -6.5915    0.4783    0.9127 C   0  0  0  0  0  0  0  0  0  0  0  0
   -7.6009   -0.3288    1.6935 C   0  0  0  0  0  0  0  0  0  0  0  0
   -8.9443   -0.3703    1.2916 C   0  0  0  0  0  0  0  0  0  0  0  0
   -9.8766   -1.1233    2.0093 C   0  0  0  0  0  0  0  0  0  0  0  0
   -9.4638   -1.8358    3.1300 C   0  0  0  0  0  0  0  0  0  0  0  0
  -10.3401   -2.5830    3.8599 O   0  0  0  0  0  0  0  0  0  0  0  0
   -8.1378   -1.8066    3.5427 C   0  0  0  0  0  0  0  0  0  0  0  0
   -7.2061   -1.0539    2.8268 C   0  0  0  0  0  0  0  0  0  0  0  0
   -6.3565   -1.0502   -1.0609 C   0  0  0  0  0  0  0  0  0  0  0  0
   -6.6583   -0.5324   -2.1276 O   0  0  0  0  0  0  0  0  0  0  0  0
   -6.6877   -2.3306   -0.8058 O   0  0  0  0  0  0  0  0  0  0  0  0
   -3.0490    1.3120   -2.9829 C   0  0  1  0  0  0  0  0  0  0  0  0
   -3.3573    0.1131   -3.8750 C   0  0  0  0  0  0  0  0  0  0  0  0
   -4.2508    2.0697   -2.7824 O   0  0  0  0  0  0  0  0  0  0  0  0
    4.6789    2.6070   -0.6281 C   0  0  0  0  0  0  0  0  0  0  0  0
    4.9962    2.5168   -2.1244 C   0  0  0  0  0  0  0  0  0  0  0  0
    3.4406    3.4788   -0.4091 C   0  0  0  0  0  0  0  0  0  0  0  0
    8.3433   -0.9373    3.5986 H   0  0  0  0  0  0  0  0  0  0  0  0
    7.5351   -2.4964    3.4516 H   0  0  0  0  0  0  0  0  0  0  0  0
    6.6128   -1.0079    3.2153 H   0  0  0  0  0  0  0  0  0  0  0  0
    8.8854   -2.0454    1.4424 H   0  0  0  0  0  0  0  0  0  0  0  0
    7.0916   -2.4469   -0.2607 H   0  0  0  0  0  0  0  0  0  0  0  0
    5.8674   -2.0599    0.9675 H   0  0  0  0  0  0  0  0  0  0  0  0
    6.9383   -3.4440    1.1899 H   0  0  0  0  0  0  0  0  0  0  0  0
    8.2696   -0.2716   -0.1871 H   0  0  0  0  0  0  0  0  0  0  0  0
    8.9521    0.8759    2.4015 H   0  0  0  0  0  0  0  0  0  0  0  0
    9.2989    1.4811    0.9575 H   0  0  0  0  0  0  0  0  0  0  0  0
    5.9790   -0.1809   -0.6602 H   0  0  0  0  0  0  0  0  0  0  0  0
    4.2456    1.3478    1.0939 H   0  0  0  0  0  0  0  0  0  0  0  0
    1.9736    1.2270    0.3124 H   0  0  0  0  0  0  0  0  0  0  0  0
    1.3677   -0.4704   -1.9760 H   0  0  0  0  0  0  0  0  0  0  0  0
    0.9636   -1.4157    0.9205 H   0  0  0  0  0  0  0  0  0  0  0  0
   -0.2357   -1.8616   -0.2885 H   0  0  0  0  0  0  0  0  0  0  0  0
    2.9822   -2.3125   -0.8093 H   0  0  0  0  0  0  0  0  0  0  0  0
   -1.1299   -0.6391   -2.0713 H   0  0  0  0  0  0  0  0  0  0  0  0
   -2.3559    1.8530   -1.0072 H   0  0  0  0  0  0  0  0  0  0  0  0
   -4.8917    1.2476   -1.0919 H   0  0  0  0  0  0  0  0  0  0  0  0
   -5.1298   -1.1387    0.7048 H   0  0  0  0  0  0  0  0  0  0  0  0
   -7.1153    1.1888    0.2586 H   0  0  0  0  0  0  0  0  0  0  0  0
   -6.0314    1.1007    1.6240 H   0  0  0  0  0  0  0  0  0  0  0  0
   -9.2758    0.1843    0.4160 H   0  0  0  0  0  0  0  0  0  0  0  0
  -10.9110   -1.1405    1.6813 H   0  0  0  0  0  0  0  0  0  0  0  0
  -11.2220   -2.5028    3.4618 H   0  0  0  0  0  0  0  0  0  0  0  0
   -7.8295   -2.3683    4.4199 H   0  0  0  0  0  0  0  0  0  0  0  0
   -6.1713   -1.0385    3.1623 H   0  0  0  0  0  0  0  0  0  0  0  0
   -7.1485   -2.6406   -1.6118 H   0  0  0  0  0  0  0  0  0  0  0  0
   -2.3468    1.9681   -3.5117 H   0  0  0  0  0  0  0  0  0  0  0  0
   -3.7624    0.4514   -4.8351 H   0  0  0  0  0  0  0  0  0  0  0  0
   -4.1209   -0.5331   -3.4312 H   0  0  0  0  0  0  0  0  0  0  0  0
   -2.4626   -0.4836   -4.0742 H   0  0  0  0  0  0  0  0  0  0  0  0
   -4.5969    2.3043   -3.6641 H   0  0  0  0  0  0  0  0  0  0  0  0
    5.5192    3.1337   -0.1554 H   0  0  0  0  0  0  0  0  0  0  0  0
    4.1772    2.0543   -2.6848 H   0  0  0  0  0  0  0  0  0  0  0  0
    5.9054    1.9339   -2.3034 H   0  0  0  0  0  0  0  0  0  0  0  0
    5.1594    3.5164   -2.5420 H   0  0  0  0  0  0  0  0  0  0  0  0
    3.1732    3.5218    0.6517 H   0  0  0  0  0  0  0  0  0  0  0  0
    3.6328    4.5042   -0.7438 H   0  0  0  0  0  0  0  0  0  0  0  0
    2.5767    3.1106   -0.9706 H   0  0  0  0  0  0  0  0  0  0  0  0
  1  2  1  0
  2  3  1  0
  2  4  1  0
  4  5  1  0
  4  6  1  0
  6  7  2  0
  6  8  1  0
  8  9  1  0
  9 10  1  0
 10 11  2  0
 10 12  1  0
 12 13  1  0
 13 14  1  0
 14 15  1  0
 13 16  1  0
 16 17  2  0
 16 18  1  0
 18 19  1  0
 19 20  1  0
 20 21  2  0
 20 22  1  0
 22 23  1  0
 23 24  1  0
 24 25  1  0
 25 26  2  0
 26 27  1  0
 27 28  2  0
 28 29  1  0
 28 30  1  0
 30 31  2  0
 23 32  1  0
 32 33  2  0
 32 34  1  0
 19 35  1  0
 35 36  1  0
 35 37  1  0
  9 38  1  0
 38 39  1  0
 38 40  1  0
 31 25  1  0
  1 41  1  0
  1 42  1  0
  1 43  1  0
  2 44  1  0
  3 45  1  0
  3 46  1  0
  3 47  1  0
  4 48  1  6
  5 49  1  0
  5 50  1  0
  8 51  1  0
  9 52  1  1
 12 53  1  0
 13 54  1  6
 14 55  1  0
 14 56  1  0
 15 57  1  0
 18 58  1  0
 19 59  1  1
 22 60  1  0
 23 61  1  1
 24 62  1  0
 24 63  1  0
 26 64  1  0
 27 65  1  0
 29 66  1  0
 30 67  1  0
 31 68  1  0
 34 69  1  0
 35 70  1  6
 36 71  1  0
 36 72  1  0
 36 73  1  0
 37 74  1  0
 38 75  1  0
 39 76  1  0
 39 77  1  0
 39 78  1  0
 40 79  1  0
 40 80  1  0
 40 81  1  0
M  END
$$$$
VVCTY.sdf
     RDKit          3D

 81 81  0  0  0  0  0  0  0  0999 V2000
    8.6985    1.8829   -0.1370 C   0  0  0  0  0  0  0  0  0  0  0  0
    8.4510    0.5144   -0.7866 C   0  0  0  0  0  0  0  0  0  0  0  0
    9.8047   -0.1567   -1.0521 C   0  0  0  0  0  0  0  0  0  0  0  0
    7.5361   -0.3592    0.1036 C   0  0  2  0  0  0  0  0  0  0  0  0
    7.3521   -1.7112   -0.4735 N   0  0  0  0  0  0  0  0  0  0  0  0
    6.1242    0.2570    0.2694 C   0  0  0  0  0  0  0  0  0  0  0  0
    5.5809    0.9325   -0.5970 O   0  0  0  0  0  0  0  0  0  0  0  0
    5.5088   -0.1380    1.4446 N   0  0  0  0  0  0  0  0  0  0  0  0
    4.0868    0.0884    1.7096 C   0  0  2  0  0  0  0  0  0  0  0  0
    3.2379   -0.7018    0.6730 C   0  0  0  0  0  0  0  0  0  0  0  0
    3.6854   -1.6931    0.0890 O   0  0  0  0  0  0  0  0  0  0  0  0
    1.9207   -0.3352    0.5391 N   0  0  0  0  0  0  0  0  0  0  0  0
    1.0716   -0.9391   -0.4942 C   0  0  1  0  0  0  0  0  0  0  0  0
    0.5677   -2.3241   -0.0649 C   0  0  0  0  0  0  0  0  0  0  0  0
    0.1442   -3.3767   -1.4983 S   0  0  0  0  0  0  0  0  0  0  0  0
   -0.0908    0.0508   -0.7305 C   0  0  0  0  0  0  0  0  0  0  0  0
   -0.1612    1.1203   -0.1216 O   0  0  0  0  0  0  0  0  0  0  0  0
   -1.0002   -0.3175   -1.6987 N   0  0  0  0  0  0  0  0  0  0  0  0
   -2.2725    0.3973   -1.8200 C   0  0  2  0  0  0  0  0  0  0  0  0
   -3.3157   -0.2828   -0.9002 C   0  0  0  0  0  0  0  0  0  0  0  0
   -3.0523   -1.2726   -0.2190 O   0  0  0  0  0  0  0  0  0  0  0  0
   -4.5523    0.3284   -0.8837 N   0  0  0  0  0  0  0  0  0  0  0  0
   -5.6735   -0.2609   -0.1406 C   0  0  1  0  0  0  0  0  0  0  0  0
   -6.6762    0.8332    0.2468 C   0  0  0  0  0  0  0  0  0  0  0  0
   -7.7764    0.3581    1.1654 C   0  0  0  0  0  0  0  0  0  0  0  0
   -9.0776    0.1657    0.6778 C   0  0  0  0  0  0  0  0  0  0  0  0
  -10.0935   -0.2827    1.5252 C   0  0  0  0  0  0  0  0  0  0  0  0
   -9.8064   -0.5394    2.8616 C   0  0  0  0  0  0  0  0  0  0  0  0
  -10.7676   -0.9777    3.7235 O   0  0  0  0  0  0  0  0  0  0  0  0
   -8.5236   -0.3553    3.3616 C   0  0  0  0  0  0  0  0  0  0  0  0
   -7.5083    0.0930    2.5157 C   0  0  0  0  0  0  0  0  0  0  0  0
   -6.3533   -1.2904   -1.0406 C   0  0  0  0  0  0  0  0  0  0  0  0
   -6.6000   -1.1547   -2.2307 O   0  0  0  0  0  0  0  0  0  0  0  0
   -6.6996   -2.4220   -0.3970 O   0  0  0  0  0  0  0  0  0  0  0  0
   -2.7396    0.4830   -3.2863 C   0  0  1  0  0  0  0  0  0  0  0  0
   -3.1886   -0.8459   -3.8831 C   0  0  0  0  0  0  0  0  0  0  0  0
   -3.8206    1.4197   -3.4004 O   0  0  0  0  0  0  0  0  0  0  0  0
    3.6852    1.5464    2.0459 C   0  0  0  0  0  0  0  0  0  0  0  0
    4.5283    2.0993    3.2024 C   0  0  0  0  0  0  0  0  0  0  0  0
    3.7025    2.5375    0.8833 C   0  0  0  0  0  0  0  0  0  0  0  0
    9.1773    1.7751    0.8424 H   0  0  0  0  0  0  0  0  0  0  0  0
    7.7658    2.4380    0.0019 H   0  0  0  0  0  0  0  0  0  0  0  0
    9.3520    2.4976   -0.7656 H   0  0  0  0  0  0  0  0  0  0  0  0
    7.9647    0.6877   -1.7558 H   0  0  0  0  0  0  0  0  0  0  0  0
    9.6870   -1.0866   -1.6173 H   0  0  0  0  0  0  0  0  0  0  0  0
   10.3219   -0.3894   -0.1149 H   0  0  0  0  0  0  0  0  0  0  0  0
   10.4541    0.4995   -1.6418 H   0  0  0  0  0  0  0  0  0  0  0  0
    7.9911   -0.4686    1.0958 H   0  0  0  0  0  0  0  0  0  0  0  0
    6.5702   -2.1768   -0.0074 H   0  0  0  0  0  0  0  0  0  0  0  0
    7.0243   -1.5950   -1.4363 H   0  0  0  0  0  0  0  0  0  0  0  0
    5.9131   -0.9533    1.8888 H   0  0  0  0  0  0  0  0  0  0  0  0
    3.9146   -0.4760    2.6391 H   0  0  0  0  0  0  0  0  0  0  0  0
    1.6186    0.5852    0.8480 H   0  0  0  0  0  0  0  0  0  0  0  0
    1.6696   -0.9870   -1.4130 H   0  0  0  0  0  0  0  0  0  0  0  0
   -0.3214   -2.2358    0.5688 H   0  0  0  0  0  0  0  0  0  0  0  0
    1.3240   -2.8658    0.5118 H   0  0  0  0  0  0  0  0  0  0  0  0
    1.4093   -3.5910   -1.8974 H   0  0  0  0  0  0  0  0  0  0  0  0
   -1.0464   -1.3159   -1.8944 H   0  0  0  0  0  0  0  0  0  0  0  0
   -2.1479    1.4169   -1.4333 H   0  0  0  0  0  0  0  0  0  0  0  0
   -4.7875    0.8486   -1.7318 H   0  0  0  0  0  0  0  0  0  0  0  0
   -5.2728   -0.7682    0.7446 H   0  0  0  0  0  0  0  0  0  0  0  0
   -7.1172    1.2782   -0.6557 H   0  0  0  0  0  0  0  0  0  0  0  0
   -6.1491    1.6579    0.7458 H   0  0  0  0  0  0  0  0  0  0  0  0
   -9.3100    0.3630   -0.3669 H   0  0  0  0  0  0  0  0  0  0  0  0
  -11.0930   -0.4241    1.1270 H   0  0  0  0  0  0  0  0  0  0  0  0
  -11.6043   -1.0593    3.2377 H   0  0  0  0  0  0  0  0  0  0  0  0
   -8.3136   -0.5609    4.4074 H   0  0  0  0  0  0  0  0  0  0  0  0
   -6.5080    0.2330    2.9200 H   0  0  0  0  0  0  0  0  0  0  0  0
   -7.1048   -2.9878   -1.0856 H   0  0  0  0  0  0  0  0  0  0  0  0
   -1.9161    0.8661   -3.9025 H   0  0  0  0  0  0  0  0  0  0  0  0
   -2.3922   -1.5946   -3.8470 H   0  0  0  0  0  0  0  0  0  0  0  0
   -3.4810   -0.7062   -4.9298 H   0  0  0  0  0  0  0  0  0  0  0  0
   -4.0696   -1.2441   -3.3716 H   0  0  0  0  0  0  0  0  0  0  0  0
   -3.4247    2.2922   -3.5860 H   0  0  0  0  0  0  0  0  0  0  0  0
    2.6498    1.5171    2.4111 H   0  0  0  0  0  0  0  0  0  0  0  0
    4.1589    3.0826    3.5135 H   0  0  0  0  0  0  0  0  0  0  0  0
    4.4797    1.4366    4.0729 H   0  0  0  0  0  0  0  0  0  0  0  0
    5.5796    2.2124    2.9174 H   0  0  0  0  0  0  0  0  0  0  0  0
    3.2210    2.1310   -0.0104 H   0  0  0  0  0  0  0  0  0  0  0  0
    4.7192    2.8501    0.6284 H   0  0  0  0  0  0  0  0  0  0  0  0
    3.1568    3.4470    1.1603 H   0  0  0  0  0  0  0  0  0  0  0  0
  1  2  1  0
  2  3  1  0
  2  4  1  0
  4  5  1  0
  4  6  1  0
  6  7  2  0
  6  8  1  0
  8  9  1  0
  9 10  1  0
 10 11  2  0
 10 12  1  0
 12 13  1  0
 13 14  1  0
 14 15  1  0
 13 16  1  0
 16 17  2  0
 16 18  1  0
 18 19  1  0
 19 20  1  0
 20 21  2  0
 20 22  1  0
 22 23  1  0
 23 24  1  0
 24 25  1  0
 25 26  2  0
 26 27  1  0
 27 28  2  0
 28 29  1  0
 28 30  1  0
 30 31  2  0
 23 32  1  0
 32 33  2  0
 32 34  1  0
 19 35  1  0
 35 36  1  0
 35 37  1  0
  9 38  1  0
 38 39  1  0
 38 40  1  0
 31 25  1  0
  1 41  1  0
  1 42  1  0
  1 43  1  0
  2 44  1  0
  3 45  1  0
  3 46  1  0
  3 47  1  0
  4 48  1  1
  5 49  1  0
  5 50  1  0
  8 51  1  0
  9 52  1  1
 12 53  1  0
 13 54  1  6
 14 55  1  0
 14 56  1  0
 15 57  1  0
 18 58  1  0
 19 59  1  1
 22 60  1  0
 23 61  1  1
 24 62  1  0
 24 63  1  0
 26 64  1  0
 27 65  1  0
 29 66  1  0
 30 67  1  0
 31 68  1  0
 34 69  1  0
 35 70  1  6
 36 71  1  0
 36 72  1  0
 36 73  1  0
 37 74  1  0
 38 75  1  0
 39 76  1  0
 39 77  1  0
 39 78  1  0
 40 79  1  0
 40 80  1  0
 40 81  1  0
M  END
$$$$
VVCTY.sdf
     RDKit          3D

 81 81  0  0  0  0  0  0  0  0999 V2000
    8.1707   -0.2291    1.6285 C   0  0  0  0  0  0  0  0  0  0  0  0
    7.6573    0.7406    0.5578 C   0  0  0  0  0  0  0  0  0  0  0  0
    7.2331    2.0548    1.2212 C   0  0  0  0  0  0  0  0  0  0  0  0
    6.5673    0.0813   -0.3189 C   0  0  2  0  0  0  0  0  0  0  0  0
    6.2602    0.9099   -1.5081 N   0  0  0  0  0  0  0  0  0  0  0  0
    5.2784   -0.2620    0.4685 C   0  0  0  0  0  0  0  0  0  0  0  0
    5.1479   -1.3165    1.0857 O   0  0  0  0  0  0  0  0  0  0  0  0
    4.3032    0.7172    0.4554 N   0  0  0  0  0  0  0  0  0  0  0  0
    2.9530    0.4087    0.9288 C   0  0  2  0  0  0  0  0  0  0  0  0
    2.2347   -0.1720   -0.3128 C   0  0  0  0  0  0  0  0  0  0  0  0
    2.4719    0.2278   -1.4544 O   0  0  0  0  0  0  0  0  0  0  0  0
    1.3191   -1.1649   -0.0549 N   0  0  0  0  0  0  0  0  0  0  0  0
    0.5091   -1.7365   -1.1269 C   0  0  1  0  0  0  0  0  0  0  0  0
    0.0769   -3.1755   -0.8088 C   0  0  0  0  0  0  0  0  0  0  0  0
   -0.8494   -3.3403    0.7598 S   0  0  0  0  0  0  0  0  0  0  0  0
   -0.7193   -0.8461   -1.4087 C   0  0  0  0  0  0  0  0  0  0  0  0
   -1.1801   -0.0593   -0.5828 O   0  0  0  0  0  0  0  0  0  0  0  0
   -1.3100   -1.0451   -2.6417 N   0  0  0  0  0  0  0  0  0  0  0  0
   -2.6151   -0.4327   -2.9452 C   0  0  2  0  0  0  0  0  0  0  0  0
   -3.6777   -1.3853   -2.3720 C   0  0  0  0  0  0  0  0  0  0  0  0
   -4.0895   -2.3676   -2.9841 O   0  0  0  0  0  0  0  0  0  0  0  0
   -4.0122   -1.1313   -1.0569 N   0  0  0  0  0  0  0  0  0  0  0  0
   -5.1768   -1.7763   -0.4423 C   0  0  1  0  0  0  0  0  0  0  0  0
   -5.0401   -1.8962    1.0845 C   0  0  0  0  0  0  0  0  0  0  0  0
   -4.8851   -0.5825    1.8200 C   0  0  0  0  0  0  0  0  0  0  0  0
   -3.6155   -0.0184    2.0181 C   0  0  0  0  0  0  0  0  0  0  0  0
   -3.4748    1.2072    2.6725 C   0  0  0  0  0  0  0  0  0  0  0  0
   -4.6062    1.8673    3.1377 C   0  0  0  0  0  0  0  0  0  0  0  0
   -4.5162    3.0656    3.7811 O   0  0  0  0  0  0  0  0  0  0  0  0
   -5.8709    1.3210    2.9605 C   0  0  0  0  0  0  0  0  0  0  0  0
   -6.0118    0.0978    2.3034 C   0  0  0  0  0  0  0  0  0  0  0  0
   -6.4401   -1.0096   -0.8440 C   0  0  0  0  0  0  0  0  0  0  0  0
   -6.4904    0.0239   -1.4950 O   0  0  0  0  0  0  0  0  0  0  0  0
   -7.5781   -1.6036   -0.4286 O   0  0  0  0  0  0  0  0  0  0  0  0
   -2.7750   -0.2613   -4.4667 C   0  0  1  0  0  0  0  0  0  0  0  0
   -4.0768    0.4358   -4.8412 C   0  0  0  0  0  0  0  0  0  0  0  0
   -1.7009    0.5440   -4.9773 O   0  0  0  0  0  0  0  0  0  0  0  0
    2.2413    1.6730    1.4594 C   0  0  0  0  0  0  0  0  0  0  0  0
    3.0988    2.4037    2.5014 C   0  0  0  0  0  0  0  0  0  0  0  0
    0.8851    1.3425    2.0905 C   0  0  0  0  0  0  0  0  0  0  0  0
    8.4935   -1.1735    1.1780 H   0  0  0  0  0  0  0  0  0  0  0  0
    9.0320    0.1987    2.1532 H   0  0  0  0  0  0  0  0  0  0  0  0
    7.4036   -0.4506    2.3773 H   0  0  0  0  0  0  0  0  0  0  0  0
    8.5115    0.9682   -0.0953 H   0  0  0  0  0  0  0  0  0  0  0  0
    6.8981    2.7928    0.4870 H   0  0  0  0  0  0  0  0  0  0  0  0
    6.4284    1.8993    1.9464 H   0  0  0  0  0  0  0  0  0  0  0  0
    8.0775    2.4974    1.7615 H   0  0  0  0  0  0  0  0  0  0  0  0
    6.9486   -0.8714   -0.7078 H   0  0  0  0  0  0  0  0  0  0  0  0
    6.0269    1.8632   -1.2489 H   0  0  0  0  0  0  0  0  0  0  0  0
    5.4724    0.5062   -2.0172 H   0  0  0  0  0  0  0  0  0  0  0  0
    4.3372    1.3346   -0.3460 H   0  0  0  0  0  0  0  0  0  0  0  0
    3.0084   -0.3587    1.7098 H   0  0  0  0  0  0  0  0  0  0  0  0
    0.9738   -1.2770    0.8922 H   0  0  0  0  0  0  0  0  0  0  0  0
    1.1160   -1.7503   -2.0412 H   0  0  0  0  0  0  0  0  0  0  0  0
    0.9642   -3.8121   -0.7232 H   0  0  0  0  0  0  0  0  0  0  0  0
   -0.5483   -3.5836   -1.6092 H   0  0  0  0  0  0  0  0  0  0  0  0
   -1.9245   -2.6291    0.3838 H   0  0  0  0  0  0  0  0  0  0  0  0
   -1.0843   -1.8892   -3.1565 H   0  0  0  0  0  0  0  0  0  0  0  0
   -2.6683    0.5450   -2.4521 H   0  0  0  0  0  0  0  0  0  0  0  0
   -3.7685   -0.2099   -0.7001 H   0  0  0  0  0  0  0  0  0  0  0  0
   -5.2686   -2.7816   -0.8711 H   0  0  0  0  0  0  0  0  0  0  0  0
   -4.1741   -2.5280    1.3206 H   0  0  0  0  0  0  0  0  0  0  0  0
   -5.9077   -2.4285    1.4959 H   0  0  0  0  0  0  0  0  0  0  0  0
   -2.7222   -0.5260    1.6599 H   0  0  0  0  0  0  0  0  0  0  0  0
   -2.4823    1.6254    2.8062 H   0  0  0  0  0  0  0  0  0  0  0  0
   -3.5814    3.3258    3.8207 H   0  0  0  0  0  0  0  0  0  0  0  0
   -6.7455    1.8467    3.3330 H   0  0  0  0  0  0  0  0  0  0  0  0
   -7.0090   -0.3181    2.1764 H   0  0  0  0  0  0  0  0  0  0  0  0
   -8.2875   -1.0298   -0.7898 H   0  0  0  0  0  0  0  0  0  0  0  0
   -2.7188   -1.2295   -4.9775 H   0  0  0  0  0  0  0  0  0  0  0  0
   -4.1365    1.4267   -4.3773 H   0  0  0  0  0  0  0  0  0  0  0  0
   -4.9528   -0.1449   -4.5391 H   0  0  0  0  0  0  0  0  0  0  0  0
   -4.1253    0.5944   -5.9241 H   0  0  0  0  0  0  0  0  0  0  0  0
   -0.8966    0.3092   -4.4793 H   0  0  0  0  0  0  0  0  0  0  0  0
    2.0652    2.3661    0.6260 H   0  0  0  0  0  0  0  0  0  0  0  0
    4.0267    2.7809    2.0603 H   0  0  0  0  0  0  0  0  0  0  0  0
    3.3595    1.7417    3.3342 H   0  0  0  0  0  0  0  0  0  0  0  0
    2.5638    3.2677    2.9103 H   0  0  0  0  0  0  0  0  0  0  0  0
    0.1862    0.9502    1.3496 H   0  0  0  0  0  0  0  0  0  0  0  0
    0.4247    2.2397    2.5187 H   0  0  0  0  0  0  0  0  0  0  0  0
    0.9882    0.6019    2.8908 H   0  0  0  0  0  0  0  0  0  0  0  0
  1  2  1  0
  2  3  1  0
  2  4  1  0
  4  5  1  0
  4  6  1  0
  6  7  2  0
  6  8  1  0
  8  9  1  0
  9 10  1  0
 10 11  2  0
 10 12  1  0
 12 13  1  0
 13 14  1  0
 14 15  1  0
 13 16  1  0
 16 17  2  0
 16 18  1  0
 18 19  1  0
 19 20  1  0
 20 21  2  0
 20 22  1  0
 22 23  1  0
 23 24  1  0
 24 25  1  0
 25 26  2  0
 26 27  1  0
 27 28  2  0
 28 29  1  0
 28 30  1  0
 30 31  2  0
 23 32  1  0
 32 33  2  0
 32 34  1  0
 19 35  1  0
 35 36  1  0
 35 37  1  0
  9 38  1  0
 38 39  1  0
 38 40  1  0
 31 25  1  0
  1 41  1  0
  1 42  1  0
  1 43  1  0
  2 44  1  0
  3 45  1  0
  3 46  1  0
  3 47  1  0
  4 48  1  6
  5 49  1  0
  5 50  1  0
  8 51  1  0
  9 52  1  1
 12 53  1  0
 13 54  1  6
 14 55  1  0
 14 56  1  0
 15 57  1  0
 18 58  1  0
 19 59  1  1
 22 60  1  0
 23 61  1  6
 24 62  1  0
 24 63  1  0
 26 64  1  0
 27 65  1  0
 29 66  1  0
 30 67  1  0
 31 68  1  0
 34 69  1  0
 35 70  1  6
 36 71  1  0
 36 72  1  0
 36 73  1  0
 37 74  1  0
 38 75  1  0
 39 76  1  0
 39 77  1  0
 39 78  1  0
 40 79  1  0
 40 80  1  0
 40 81  1  0
M  END
$$$$
VVCTY.sdf
     RDKit          3D

 81 81  0  0  0  0  0  0  0  0999 V2000
    9.5797    0.6427   -1.2109 C   0  0  0  0  0  0  0  0  0  0  0  0
    8.2356    1.0959   -0.6268 C   0  0  0  0  0  0  0  0  0  0  0  0
    8.5041    2.0511    0.5442 C   0  0  0  0  0  0  0  0  0  0  0  0
    7.3686   -0.1016   -0.1717 C   0  0  2  0  0  0  0  0  0  0  0  0
    7.1663   -1.0722   -1.2733 N   0  0  0  0  0  0  0  0  0  0  0  0
    5.9610    0.3429    0.3009 C   0  0  0  0  0  0  0  0  0  0  0  0
    5.3764    1.3139   -0.1640 O   0  0  0  0  0  0  0  0  0  0  0  0
    5.4074   -0.5423    1.2094 N   0  0  0  0  0  0  0  0  0  0  0  0
    3.9887   -0.5297    1.5738 C   0  0  2  0  0  0  0  0  0  0  0  0
    3.1358   -0.9231    0.3352 C   0  0  0  0  0  0  0  0  0  0  0  0
    3.6302   -1.4817   -0.6480 O   0  0  0  0  0  0  0  0  0  0  0  0
    1.7828   -0.7357    0.4422 N   0  0  0  0  0  0  0  0  0  0  0  0
    0.8519   -1.1285   -0.6126 C   0  0  1  0  0  0  0  0  0  0  0  0
    0.6197   -2.6465   -0.6827 C   0  0  0  0  0  0  0  0  0  0  0  0
    0.1086   -3.3992    0.9052 S   0  0  0  0  0  0  0  0  0  0  0  0
   -0.4671   -0.3642   -0.4028 C   0  0  0  0  0  0  0  0  0  0  0  0
   -0.7420    0.1954    0.6596 O   0  0  0  0  0  0  0  0  0  0  0  0
   -1.3074   -0.3437   -1.4909 N   0  0  0  0  0  0  0  0  0  0  0  0
   -2.7024    0.0660   -1.3548 C   0  0  2  0  0  0  0  0  0  0  0  0
   -3.5276   -1.1800   -0.9671 C   0  0  0  0  0  0  0  0  0  0  0  0
   -3.1500   -2.3304   -1.1880 O   0  0  0  0  0  0  0  0  0  0  0  0
   -4.7404   -0.8995   -0.3691 N   0  0  0  0  0  0  0  0  0  0  0  0
   -5.7445   -1.9513   -0.1831 C   0  0  1  0  0  0  0  0  0  0  0  0
   -6.5909   -1.7373    1.0812 C   0  0  0  0  0  0  0  0  0  0  0  0
   -7.2681   -0.3863    1.1711 C   0  0  0  0  0  0  0  0  0  0  0  0
   -6.6278    0.6835    1.8147 C   0  0  0  0  0  0  0  0  0  0  0  0
   -7.2345    1.9383    1.8731 C   0  0  0  0  0  0  0  0  0  0  0  0
   -8.4826    2.1269    1.2937 C   0  0  0  0  0  0  0  0  0  0  0  0
   -9.0373    3.3695    1.3722 O   0  0  0  0  0  0  0  0  0  0  0  0
   -9.1385    1.0785    0.6578 C   0  0  0  0  0  0  0  0  0  0  0  0
   -8.5310   -0.1781    0.5981 C   0  0  0  0  0  0  0  0  0  0  0  0
   -6.6152   -2.0197   -1.4386 C   0  0  0  0  0  0  0  0  0  0  0  0
   -6.6596   -1.1959   -2.3416 O   0  0  0  0  0  0  0  0  0  0  0  0
   -7.3939   -3.1203   -1.4855 O   0  0  0  0  0  0  0  0  0  0  0  0
   -3.2442    0.6546   -2.6735 C   0  0  1  0  0  0  0  0  0  0  0  0
   -2.7196    2.0663   -2.9117 C   0  0  0  0  0  0  0  0  0  0  0  0
   -2.8395   -0.1651   -3.7795 O   0  0  0  0  0  0  0  0  0  0  0  0
    3.5106    0.6601    2.4441 C   0  0  0  0  0  0  0  0  0  0  0  0
    3.3120    1.9930    1.7239 C   0  0  0  0  0  0  0  0  0  0  0  0
    4.4182    0.8603    3.6638 C   0  0  0  0  0  0  0  0  0  0  0  0
    9.4418    0.0487   -2.1199 H   0  0  0  0  0  0  0  0  0  0  0  0
   10.1968    1.5068   -1.4805 H   0  0  0  0  0  0  0  0  0  0  0  0
   10.1414    0.0389   -0.4899 H   0  0  0  0  0  0  0  0  0  0  0  0
    7.7037    1.6611   -1.4038 H   0  0  0  0  0  0  0  0  0  0  0  0
    9.1235    2.8951    0.2214 H   0  0  0  0  0  0  0  0  0  0  0  0
    7.5753    2.4657    0.9476 H   0  0  0  0  0  0  0  0  0  0  0  0
    9.0287    1.5403    1.3590 H   0  0  0  0  0  0  0  0  0  0  0  0
    7.8702   -0.6202    0.6547 H   0  0  0  0  0  0  0  0  0  0  0  0
    6.3995   -1.7048   -1.0300 H   0  0  0  0  0  0  0  0  0  0  0  0
    6.7979   -0.5540   -2.0760 H   0  0  0  0  0  0  0  0  0  0  0  0
    5.8452   -1.4551    1.2283 H   0  0  0  0  0  0  0  0  0  0  0  0
    3.8967   -1.4136    2.2239 H   0  0  0  0  0  0  0  0  0  0  0  0
    1.3572   -0.3532    1.2800 H   0  0  0  0  0  0  0  0  0  0  0  0
    1.2777   -0.7913   -1.5665 H   0  0  0  0  0  0  0  0  0  0  0  0
    1.5395   -3.1538   -0.9912 H   0  0  0  0  0  0  0  0  0  0  0  0
   -0.1472   -2.8883   -1.4252 H   0  0  0  0  0  0  0  0  0  0  0  0
   -0.1784   -4.6112    0.4077 H   0  0  0  0  0  0  0  0  0  0  0  0
   -1.1484   -0.9846   -2.2615 H   0  0  0  0  0  0  0  0  0  0  0  0
   -2.7972    0.7943   -0.5403 H   0  0  0  0  0  0  0  0  0  0  0  0
   -5.1052    0.0419   -0.4623 H   0  0  0  0  0  0  0  0  0  0  0  0
   -5.2257   -2.9142   -0.1042 H   0  0  0  0  0  0  0  0  0  0  0  0
   -5.9488   -1.8607    1.9638 H   0  0  0  0  0  0  0  0  0  0  0  0
   -7.3553   -2.5209    1.1631 H   0  0  0  0  0  0  0  0  0  0  0  0
   -5.6515    0.5468    2.2767 H   0  0  0  0  0  0  0  0  0  0  0  0
   -6.7370    2.7648    2.3730 H   0  0  0  0  0  0  0  0  0  0  0  0
   -9.9143    3.3455    0.9557 H   0  0  0  0  0  0  0  0  0  0  0  0
  -10.1156    1.2178    0.2060 H   0  0  0  0  0  0  0  0  0  0  0  0
   -9.0542   -0.9931    0.1024 H   0  0  0  0  0  0  0  0  0  0  0  0
   -7.8449   -3.0586   -2.3543 H   0  0  0  0  0  0  0  0  0  0  0  0
   -4.3397    0.6778   -2.6619 H   0  0  0  0  0  0  0  0  0  0  0  0
   -1.6286    2.0730   -3.0094 H   0  0  0  0  0  0  0  0  0  0  0  0
   -3.0051    2.7388   -2.0972 H   0  0  0  0  0  0  0  0  0  0  0  0
   -3.1190    2.4682   -3.8492 H   0  0  0  0  0  0  0  0  0  0  0  0
   -3.2874    0.1777   -4.5735 H   0  0  0  0  0  0  0  0  0  0  0  0
    2.5249    0.3833    2.8417 H   0  0  0  0  0  0  0  0  0  0  0  0
    2.8089    1.8705    0.7609 H   0  0  0  0  0  0  0  0  0  0  0  0
    4.2571    2.5201    1.5678 H   0  0  0  0  0  0  0  0  0  0  0  0
    2.6868    2.6551    2.3344 H   0  0  0  0  0  0  0  0  0  0  0  0
    3.9980    1.6153    4.3373 H   0  0  0  0  0  0  0  0  0  0  0  0
    4.5203   -0.0706    4.2314 H   0  0  0  0  0  0  0  0  0  0  0  0
    5.4193    1.1944    3.3717 H   0  0  0  0  0  0  0  0  0  0  0  0
  1  2  1  0
  2  3  1  0
  2  4  1  0
  4  5  1  0
  4  6  1  0
  6  7  2  0
  6  8  1  0
  8  9  1  0
  9 10  1  0
 10 11  2  0
 10 12  1  0
 12 13  1  0
 13 14  1  0
 14 15  1  0
 13 16  1  0
 16 17  2  0
 16 18  1  0
 18 19  1  0
 19 20  1  0
 20 21  2  0
 20 22  1  0
 22 23  1  0
 23 24  1  0
 24 25  1  0
 25 26  2  0
 26 27  1  0
 27 28  2  0
 28 29  1  0
 28 30  1  0
 30 31  2  0
 23 32  1  0
 32 33  2  0
 32 34  1  0
 19 35  1  0
 35 36  1  0
 35 37  1  0
  9 38  1  0
 38 39  1  0
 38 40  1  0
 31 25  1  0
  1 41  1  0
  1 42  1  0
  1 43  1  0
  2 44  1  0
  3 45  1  0
  3 46  1  0
  3 47  1  0
  4 48  1  1
  5 49  1  0
  5 50  1  0
  8 51  1  0
  9 52  1  1
 12 53  1  0
 13 54  1  6
 14 55  1  0
 14 56  1  0
 15 57  1  0
 18 58  1  0
 19 59  1  1
 22 60  1  0
 23 61  1  1
 24 62  1  0
 24 63  1  0
 26 64  1  0
 27 65  1  0
 29 66  1  0
 30 67  1  0
 31 68  1  0
 34 69  1  0
 35 70  1  1
 36 71  1  0
 36 72  1  0
 36 73  1  0
 37 74  1  0
 38 75  1  0
 39 76  1  0
 39 77  1  0
 39 78  1  0
 40 79  1  0
 40 80  1  0
 40 81  1  0
M  END
$$$$
VVCTY.sdf
     RDKit          3D

 81 81  0  0  0  0  0  0  0  0999 V2000
    6.5005   -0.1858   -2.4080 C   0  0  0  0  0  0  0  0  0  0  0  0
    6.5237    1.1550   -1.6653 C   0  0  0  0  0  0  0  0  0  0  0  0
    7.2193    2.2130   -2.5287 C   0  0  0  0  0  0  0  0  0  0  0  0
    7.1646    1.0677   -0.2592 C   0  0  2  0  0  0  0  0  0  0  0  0
    8.5734    0.6183   -0.3000 N   0  0  0  0  0  0  0  0  0  0  0  0
    6.3551    0.1415    0.6840 C   0  0  0  0  0  0  0  0  0  0  0  0
    6.7739   -0.9559    1.0494 O   0  0  0  0  0  0  0  0  0  0  0  0
    5.1459    0.6621    1.0962 N   0  0  0  0  0  0  0  0  0  0  0  0
    4.1596   -0.1936    1.7534 C   0  0  2  0  0  0  0  0  0  0  0  0
    3.2038   -0.7260    0.6617 C   0  0  0  0  0  0  0  0  0  0  0  0
    3.0881   -0.1809   -0.4367 O   0  0  0  0  0  0  0  0  0  0  0  0
    2.4664   -1.8311    1.0270 N   0  0  0  0  0  0  0  0  0  0  0  0
    1.3233   -2.2538    0.2204 C   0  0  1  0  0  0  0  0  0  0  0  0
    1.0712   -3.7634    0.3242 C   0  0  0  0  0  0  0  0  0  0  0  0
    0.8689   -4.3658    2.0381 S   0  0  0  0  0  0  0  0  0  0  0  0
    0.0831   -1.4386    0.6451 C   0  0  0  0  0  0  0  0  0  0  0  0
    0.0381   -0.7836    1.6859 O   0  0  0  0  0  0  0  0  0  0  0  0
   -0.9754   -1.5027   -0.2266 N   0  0  0  0  0  0  0  0  0  0  0  0
   -2.2564   -0.8487    0.0395 C   0  0  2  0  0  0  0  0  0  0  0  0
   -3.2932   -1.4685   -0.9230 C   0  0  0  0  0  0  0  0  0  0  0  0
   -2.9793   -2.3146   -1.7620 O   0  0  0  0  0  0  0  0  0  0  0  0
   -4.5862   -1.0362   -0.7359 N   0  0  0  0  0  0  0  0  0  0  0  0
   -5.6551   -1.4016   -1.6678 C   0  0  1  0  0  0  0  0  0  0  0  0
   -7.0231   -1.4907   -0.9725 C   0  0  0  0  0  0  0  0  0  0  0  0
   -7.4946   -0.2103   -0.3177 C   0  0  0  0  0  0  0  0  0  0  0  0
   -8.2829    0.7053   -1.0290 C   0  0  0  0  0  0  0  0  0  0  0  0
   -8.6994    1.8943   -0.4285 C   0  0  0  0  0  0  0  0  0  0  0  0
   -8.3323    2.1705    0.8824 C   0  0  0  0  0  0  0  0  0  0  0  0
   -8.7608    3.3439    1.4286 O   0  0  0  0  0  0  0  0  0  0  0  0
   -7.5549    1.2747    1.6077 C   0  0  0  0  0  0  0  0  0  0  0  0
   -7.1386    0.0846    1.0072 C   0  0  0  0  0  0  0  0  0  0  0  0
   -5.6855   -0.4238   -2.8446 C   0  0  0  0  0  0  0  0  0  0  0  0
   -5.0596    0.6198   -2.9538 O   0  0  0  0  0  0  0  0  0  0  0  0
   -6.5066   -0.8223   -3.8400 O   0  0  0  0  0  0  0  0  0  0  0  0
   -2.1936    0.6911   -0.0714 C   0  0  1  0  0  0  0  0  0  0  0  0
   -1.7915    1.1891   -1.4564 C   0  0  0  0  0  0  0  0  0  0  0  0
   -3.4645    1.2561    0.2867 O   0  0  0  0  0  0  0  0  0  0  0  0
    3.3848    0.5451    2.8680 C   0  0  0  0  0  0  0  0  0  0  0  0
    4.3139    0.8951    4.0345 C   0  0  0  0  0  0  0  0  0  0  0  0
    2.6670    1.8073    2.3781 C   0  0  0  0  0  0  0  0  0  0  0  0
    7.5099   -0.5488   -2.6264 H   0  0  0  0  0  0  0  0  0  0  0  0
    5.9780   -0.9529   -1.8279 H   0  0  0  0  0  0  0  0  0  0  0  0
    5.9735   -0.0836   -3.3632 H   0  0  0  0  0  0  0  0  0  0  0  0
    5.4797    1.4732   -1.5505 H   0  0  0  0  0  0  0  0  0  0  0  0
    8.2569    1.9405   -2.7482 H   0  0  0  0  0  0  0  0  0  0  0  0
    6.6974    2.3342   -3.4842 H   0  0  0  0  0  0  0  0  0  0  0  0
    7.2203    3.1857   -2.0257 H   0  0  0  0  0  0  0  0  0  0  0  0
    7.1593    2.0664    0.1963 H   0  0  0  0  0  0  0  0  0  0  0  0
    8.9198    0.5992    0.6618 H   0  0  0  0  0  0  0  0  0  0  0  0
    8.5676   -0.3721   -0.5607 H   0  0  0  0  0  0  0  0  0  0  0  0
    4.7493    1.3849    0.5064 H   0  0  0  0  0  0  0  0  0  0  0  0
    4.6692   -1.0632    2.1867 H   0  0  0  0  0  0  0  0  0  0  0  0
    2.3851   -2.0323    2.0186 H   0  0  0  0  0  0  0  0  0  0  0  0
    1.5272   -2.0071   -0.8292 H   0  0  0  0  0  0  0  0  0  0  0  0
    1.9216   -4.3048   -0.1043 H   0  0  0  0  0  0  0  0  0  0  0  0
    0.1784   -4.0521   -0.2396 H   0  0  0  0  0  0  0  0  0  0  0  0
    0.7242   -5.6632    1.7281 H   0  0  0  0  0  0  0  0  0  0  0  0
   -0.9346   -2.0694   -1.0698 H   0  0  0  0  0  0  0  0  0  0  0  0
   -2.5661   -1.1255    1.0559 H   0  0  0  0  0  0  0  0  0  0  0  0
   -4.6587   -0.1091   -0.3066 H   0  0  0  0  0  0  0  0  0  0  0  0
   -5.4093   -2.3859   -2.0853 H   0  0  0  0  0  0  0  0  0  0  0  0
   -6.9857   -2.2765   -0.2059 H   0  0  0  0  0  0  0  0  0  0  0  0
   -7.7865   -1.8199   -1.6896 H   0  0  0  0  0  0  0  0  0  0  0  0
   -8.5820    0.5014   -2.0547 H   0  0  0  0  0  0  0  0  0  0  0  0
   -9.3092    2.6028   -0.9817 H   0  0  0  0  0  0  0  0  0  0  0  0
   -8.4422    3.3922    2.3447 H   0  0  0  0  0  0  0  0  0  0  0  0
   -7.2635    1.4819    2.6324 H   0  0  0  0  0  0  0  0  0  0  0  0
   -6.5295   -0.6118    1.5806 H   0  0  0  0  0  0  0  0  0  0  0  0
   -6.3963   -0.1275   -4.5238 H   0  0  0  0  0  0  0  0  0  0  0  0
   -1.4689    1.0755    0.6550 H   0  0  0  0  0  0  0  0  0  0  0  0
   -1.7646    2.2842   -1.4729 H   0  0  0  0  0  0  0  0  0  0  0  0
   -0.8036    0.8188   -1.7459 H   0  0  0  0  0  0  0  0  0  0  0  0
   -2.5154    0.8866   -2.2180 H   0  0  0  0  0  0  0  0  0  0  0  0
   -3.3806    2.2247    0.2042 H   0  0  0  0  0  0  0  0  0  0  0  0
    2.6147   -0.1313    3.2606 H   0  0  0  0  0  0  0  0  0  0  0  0
    3.7480    1.3437    4.8580 H   0  0  0  0  0  0  0  0  0  0  0  0
    5.0892    1.6076    3.7337 H   0  0  0  0  0  0  0  0  0  0  0  0
    4.8077   -0.0027    4.4210 H   0  0  0  0  0  0  0  0  0  0  0  0
    3.3731    2.5641    2.0216 H   0  0  0  0  0  0  0  0  0  0  0  0
    2.0857    2.2557    3.1914 H   0  0  0  0  0  0  0  0  0  0  0  0
    1.9697    1.5800    1.5659 H   0  0  0  0  0  0  0  0  0  0  0  0
  1  2  1  0
  2  3  1  0
  2  4  1  0
  4  5  1  0
  4  6  1  0
  6  7  2  0
  6  8  1  0
  8  9  1  0
  9 10  1  0
 10 11  2  0
 10 12  1  0
 12 13  1  0
 13 14  1  0
 14 15  1  0
 13 16  1  0
 16 17  2  0
 16 18  1  0
 18 19  1  0
 19 20  1  0
 20 21  2  0
 20 22  1  0
 22 23  1  0
 23 24  1  0
 24 25  1  0
 25 26  2  0
 26 27  1  0
 27 28  2  0
 28 29  1  0
 28 30  1  0
 30 31  2  0
 23 32  1  0
 32 33  2  0
 32 34  1  0
 19 35  1  0
 35 36  1  0
 35 37  1  0
  9 38  1  0
 38 39  1  0
 38 40  1  0
 31 25  1  0
  1 41  1  0
  1 42  1  0
  1 43  1  0
  2 44  1  0
  3 45  1  0
  3 46  1  0
  3 47  1  0
  4 48  1  1
  5 49  1  0
  5 50  1  0
  8 51  1  0
  9 52  1  1
 12 53  1  0
 13 54  1  6
 14 55  1  0
 14 56  1  0
 15 57  1  0
 18 58  1  0
 19 59  1  1
 22 60  1  0
 23 61  1  6
 24 62  1  0
 24 63  1  0
 26 64  1  0
 27 65  1  0
 29 66  1  0
 30 67  1  0
 31 68  1  0
 34 69  1  0
 35 70  1  1
 36 71  1  0
 36 72  1  0
 36 73  1  0
 37 74  1  0
 38 75  1  0
 39 76  1  0
 39 77  1  0
 39 78  1  0
 40 79  1  0
 40 80  1  0
 40 81  1  0
M  END
$$$$
VVCTY.sdf
     RDKit          3D

 81 81  0  0  0  0  0  0  0  0999 V2000
    6.8637   -2.9694   -1.1171 C   0  0  0  0  0  0  0  0  0  0  0  0
    5.6232   -2.1913   -0.6655 C   0  0  0  0  0  0  0  0  0  0  0  0
    4.5758   -2.1923   -1.7853 C   0  0  0  0  0  0  0  0  0  0  0  0
    5.0835   -2.7289    0.6819 C   0  0  2  0  0  0  0  0  0  0  0  0
    4.5981   -4.1214    0.5894 N   0  0  0  0  0  0  0  0  0  0  0  0
    3.9574   -1.8258    1.2419 C   0  0  0  0  0  0  0  0  0  0  0  0
    2.7713   -2.1557    1.2293 O   0  0  0  0  0  0  0  0  0  0  0  0
    4.3884   -0.6144    1.7510 N   0  0  0  0  0  0  0  0  0  0  0  0
    3.3930    0.4000    2.0940 C   0  0  2  0  0  0  0  0  0  0  0  0
    2.9366    1.0360    0.7640 C   0  0  0  0  0  0  0  0  0  0  0  0
    3.7111    1.2665   -0.1642 O   0  0  0  0  0  0  0  0  0  0  0  0
    1.5950    1.3133    0.6896 N   0  0  0  0  0  0  0  0  0  0  0  0
    0.9636    1.7408   -0.5556 C   0  0  1  0  0  0  0  0  0  0  0  0
    0.9355    0.6357   -1.6257 C   0  0  0  0  0  0  0  0  0  0  0  0
    0.1246   -0.9082   -1.0862 S   0  0  0  0  0  0  0  0  0  0  0  0
   -0.4453    2.2706   -0.2191 C   0  0  0  0  0  0  0  0  0  0  0  0
   -0.9635    2.1068    0.8872 O   0  0  0  0  0  0  0  0  0  0  0  0
   -1.0855    2.9532   -1.2349 N   0  0  0  0  0  0  0  0  0  0  0  0
   -2.4872    3.3876   -1.0698 C   0  0  2  0  0  0  0  0  0  0  0  0
   -3.3839    2.1882   -1.4295 C   0  0  0  0  0  0  0  0  0  0  0  0
   -3.9405    2.0684   -2.5166 O   0  0  0  0  0  0  0  0  0  0  0  0
   -3.4329    1.2176   -0.4516 N   0  0  0  0  0  0  0  0  0  0  0  0
   -4.3559    0.0812   -0.5415 C   0  0  1  0  0  0  0  0  0  0  0  0
   -3.8644   -1.0755    0.3371 C   0  0  0  0  0  0  0  0  0  0  0  0
   -4.6044   -2.3705    0.1044 C   0  0  0  0  0  0  0  0  0  0  0  0
   -5.5856   -2.8035    1.0071 C   0  0  0  0  0  0  0  0  0  0  0  0
   -6.2758   -3.9948    0.7795 C   0  0  0  0  0  0  0  0  0  0  0  0
   -5.9875   -4.7542   -0.3475 C   0  0  0  0  0  0  0  0  0  0  0  0
   -6.6863   -5.9107   -0.5304 O   0  0  0  0  0  0  0  0  0  0  0  0
   -5.0166   -4.3431   -1.2545 C   0  0  0  0  0  0  0  0  0  0  0  0
   -4.3256   -3.1509   -1.0274 C   0  0  0  0  0  0  0  0  0  0  0  0
   -5.7205    0.5604   -0.0485 C   0  0  0  0  0  0  0  0  0  0  0  0
   -5.9216    1.3247    0.8853 O   0  0  0  0  0  0  0  0  0  0  0  0
   -6.7535    0.0455   -0.7432 O   0  0  0  0  0  0  0  0  0  0  0  0
   -2.7684    4.6053   -1.9712 C   0  0  1  0  0  0  0  0  0  0  0  0
   -4.1466    5.2083   -1.7303 C   0  0  0  0  0  0  0  0  0  0  0  0
   -1.8055    5.6380   -1.7013 O   0  0  0  0  0  0  0  0  0  0  0  0
    3.9372    1.4267    3.1093 C   0  0  0  0  0  0  0  0  0  0  0  0
    5.0674    2.3049    2.5635 C   0  0  0  0  0  0  0  0  0  0  0  0
    2.8169    2.3116    3.6638 C   0  0  0  0  0  0  0  0  0  0  0  0
    7.6358   -2.9544   -0.3407 H   0  0  0  0  0  0  0  0  0  0  0  0
    7.2923   -2.5208   -2.0199 H   0  0  0  0  0  0  0  0  0  0  0  0
    6.6276   -4.0142   -1.3442 H   0  0  0  0  0  0  0  0  0  0  0  0
    5.9339   -1.1485   -0.5218 H   0  0  0  0  0  0  0  0  0  0  0  0
    4.9865   -1.7347   -2.6921 H   0  0  0  0  0  0  0  0  0  0  0  0
    3.6901   -1.6160   -1.5019 H   0  0  0  0  0  0  0  0  0  0  0  0
    4.2564   -3.2068   -2.0444 H   0  0  0  0  0  0  0  0  0  0  0  0
    5.8960   -2.7187    1.4197 H   0  0  0  0  0  0  0  0  0  0  0  0
    3.7346   -4.1114    0.0391 H   0  0  0  0  0  0  0  0  0  0  0  0
    4.2799   -4.4068    1.5179 H   0  0  0  0  0  0  0  0  0  0  0  0
    5.2627   -0.2650    1.3769 H   0  0  0  0  0  0  0  0  0  0  0  0
    2.5380   -0.1201    2.5445 H   0  0  0  0  0  0  0  0  0  0  0  0
    0.9672    0.9954    1.4240 H   0  0  0  0  0  0  0  0  0  0  0  0
    1.5466    2.5877   -0.9396 H   0  0  0  0  0  0  0  0  0  0  0  0
    1.9539    0.3742   -1.9298 H   0  0  0  0  0  0  0  0  0  0  0  0
    0.4130    0.9809   -2.5230 H   0  0  0  0  0  0  0  0  0  0  0  0
    1.0661   -1.2800   -0.1973 H   0  0  0  0  0  0  0  0  0  0  0  0
   -0.7916    2.7762   -2.1888 H   0  0  0  0  0  0  0  0  0  0  0  0
   -2.6452    3.6630   -0.0200 H   0  0  0  0  0  0  0  0  0  0  0  0
   -3.0597    1.4572    0.4661 H   0  0  0  0  0  0  0  0  0  0  0  0
   -4.4372   -0.2092   -1.5953 H   0  0  0  0  0  0  0  0  0  0  0  0
   -3.9276   -0.8012    1.3990 H   0  0  0  0  0  0  0  0  0  0  0  0
   -2.7984   -1.2575    0.1521 H   0  0  0  0  0  0  0  0  0  0  0  0
   -5.8213   -2.2191    1.8937 H   0  0  0  0  0  0  0  0  0  0  0  0
   -7.0357   -4.3299    1.4795 H   0  0  0  0  0  0  0  0  0  0  0  0
   -6.3762   -6.3305   -1.3493 H   0  0  0  0  0  0  0  0  0  0  0  0
   -4.7839   -4.9309   -2.1365 H   0  0  0  0  0  0  0  0  0  0  0  0
   -3.5645   -2.8350   -1.7386 H   0  0  0  0  0  0  0  0  0  0  0  0
   -7.5522    0.4319   -0.3291 H   0  0  0  0  0  0  0  0  0  0  0  0
   -2.6622    4.3400   -3.0295 H   0  0  0  0  0  0  0  0  0  0  0  0
   -4.2549    5.5302   -0.6886 H   0  0  0  0  0  0  0  0  0  0  0  0
   -4.2831    6.1026   -2.3485 H   0  0  0  0  0  0  0  0  0  0  0  0
   -4.9501    4.5044   -1.9632 H   0  0  0  0  0  0  0  0  0  0  0  0
   -0.9545    5.1990   -1.5242 H   0  0  0  0  0  0  0  0  0  0  0  0
    4.3502    0.8617    3.9564 H   0  0  0  0  0  0  0  0  0  0  0  0
    5.4632    2.9513    3.3548 H   0  0  0  0  0  0  0  0  0  0  0  0
    5.9001    1.7016    2.1899 H   0  0  0  0  0  0  0  0  0  0  0  0
    4.7220    2.9542    1.7527 H   0  0  0  0  0  0  0  0  0  0  0  0
    2.0045    1.7030    4.0744 H   0  0  0  0  0  0  0  0  0  0  0  0
    2.3984    2.9664    2.8927 H   0  0  0  0  0  0  0  0  0  0  0  0
    3.1940    2.9488    4.4711 H   0  0  0  0  0  0  0  0  0  0  0  0
  1  2  1  0
  2  3  1  0
  2  4  1  0
  4  5  1  0
  4  6  1  0
  6  7  2  0
  6  8  1  0
  8  9  1  0
  9 10  1  0
 10 11  2  0
 10 12  1  0
 12 13  1  0
 13 14  1  0
 14 15  1  0
 13 16  1  0
 16 17  2  0
 16 18  1  0
 18 19  1  0
 19 20  1  0
 20 21  2  0
 20 22  1  0
 22 23  1  0
 23 24  1  0
 24 25  1  0
 25 26  2  0
 26 27  1  0
 27 28  2  0
 28 29  1  0
 28 30  1  0
 30 31  2  0
 23 32  1  0
 32 33  2  0
 32 34  1  0
 19 35  1  0
 35 36  1  0
 35 37  1  0
  9 38  1  0
 38 39  1  0
 38 40  1  0
 31 25  1  0
  1 41  1  0
  1 42  1  0
  1 43  1  0
  2 44  1  0
  3 45  1  0
  3 46  1  0
  3 47  1  0
  4 48  1  1
  5 49  1  0
  5 50  1  0
  8 51  1  0
  9 52  1  1
 12 53  1  0
 13 54  1  6
 14 55  1  0
 14 56  1  0
 15 57  1  0
 18 58  1  0
 19 59  1  1
 22 60  1  0
 23 61  1  6
 24 62  1  0
 24 63  1  0
 26 64  1  0
 27 65  1  0
 29 66  1  0
 30 67  1  0
 31 68  1  0
 34 69  1  0
 35 70  1  6
 36 71  1  0
 36 72  1  0
 36 73  1  0
 37 74  1  0
 38 75  1  0
 39 76  1  0
 39 77  1  0
 39 78  1  0
 40 79  1  0
 40 80  1  0
 40 81  1  0
M  END
$$$$
VVCTY.sdf
     RDKit          3D

 81 81  0  0  0  0  0  0  0  0999 V2000
    8.9615   -3.0915   -0.2069 C   0  0  0  0  0  0  0  0  0  0  0  0
    7.8679   -2.5345    0.7106 C   0  0  0  0  0  0  0  0  0  0  0  0
    8.5037   -1.6635    1.8003 C   0  0  0  0  0  0  0  0  0  0  0  0
    6.7652   -1.8039   -0.0929 C   0  0  2  0  0  0  0  0  0  0  0  0
    7.2191   -0.5516   -0.7469 N   0  0  0  0  0  0  0  0  0  0  0  0
    5.5070   -1.5181    0.7680 C   0  0  0  0  0  0  0  0  0  0  0  0
    5.2108   -2.1473    1.7789 O   0  0  0  0  0  0  0  0  0  0  0  0
    4.7175   -0.5192    0.2505 N   0  0  0  0  0  0  0  0  0  0  0  0
    3.5037   -0.0349    0.8926 C   0  0  2  0  0  0  0  0  0  0  0  0
    2.6448    0.6412   -0.1970 C   0  0  0  0  0  0  0  0  0  0  0  0
    3.1250    1.1279   -1.2209 O   0  0  0  0  0  0  0  0  0  0  0  0
    1.2992    0.6960    0.0732 N   0  0  0  0  0  0  0  0  0  0  0  0
    0.3434    1.2272   -0.8938 C   0  0  1  0  0  0  0  0  0  0  0  0
    0.0882    0.2844   -2.0795 C   0  0  0  0  0  0  0  0  0  0  0  0
   -0.3442   -1.4254   -1.5900 S   0  0  0  0  0  0  0  0  0  0  0  0
   -0.9600    1.5762   -0.1571 C   0  0  0  0  0  0  0  0  0  0  0  0
   -1.2884    1.0537    0.9098 O   0  0  0  0  0  0  0  0  0  0  0  0
   -1.7597    2.5003   -0.7807 N   0  0  0  0  0  0  0  0  0  0  0  0
   -3.0239    2.9766   -0.2079 C   0  0  2  0  0  0  0  0  0  0  0  0
   -4.1339    1.9668   -0.5615 C   0  0  0  0  0  0  0  0  0  0  0  0
   -5.0137    2.2147   -1.3826 O   0  0  0  0  0  0  0  0  0  0  0  0
   -4.0277    0.7633    0.1076 N   0  0  0  0  0  0  0  0  0  0  0  0
   -4.7836   -0.4364   -0.2775 C   0  0  1  0  0  0  0  0  0  0  0  0
   -6.2909   -0.2012   -0.4585 C   0  0  0  0  0  0  0  0  0  0  0  0
   -7.1211   -1.4480   -0.2460 C   0  0  0  0  0  0  0  0  0  0  0  0
   -7.3719   -1.9194    1.0509 C   0  0  0  0  0  0  0  0  0  0  0  0
   -8.1301   -3.0741    1.2478 C   0  0  0  0  0  0  0  0  0  0  0  0
   -8.6396   -3.7589    0.1519 C   0  0  0  0  0  0  0  0  0  0  0  0
   -9.3755   -4.8818    0.3903 O   0  0  0  0  0  0  0  0  0  0  0  0
   -8.4041   -3.3077   -1.1424 C   0  0  0  0  0  0  0  0  0  0  0  0
   -7.6447   -2.1520   -1.3400 C   0  0  0  0  0  0  0  0  0  0  0  0
   -4.1547   -1.0404   -1.5381 C   0  0  0  0  0  0  0  0  0  0  0  0
   -3.5911   -0.4436   -2.4442 O   0  0  0  0  0  0  0  0  0  0  0  0
   -4.2509   -2.3855   -1.5794 O   0  0  0  0  0  0  0  0  0  0  0  0
   -3.3805    4.3675   -0.7724 C   0  0  1  0  0  0  0  0  0  0  0  0
   -2.4475    5.4503   -0.2430 C   0  0  0  0  0  0  0  0  0  0  0  0
   -3.2668    4.3608   -2.2042 O   0  0  0  0  0  0  0  0  0  0  0  0
    3.8272    0.8932    2.0883 C   0  0  0  0  0  0  0  0  0  0  0  0
    2.5993    1.1831    2.9546 C   0  0  0  0  0  0  0  0  0  0  0  0
    4.4918    2.2070    1.6643 C   0  0  0  0  0  0  0  0  0  0  0  0
    8.5293   -3.7271   -0.9869 H   0  0  0  0  0  0  0  0  0  0  0  0
    9.6676   -3.7031    0.3654 H   0  0  0  0  0  0  0  0  0  0  0  0
    9.5327   -2.2940   -0.6926 H   0  0  0  0  0  0  0  0  0  0  0  0
    7.4052   -3.3944    1.2135 H   0  0  0  0  0  0  0  0  0  0  0  0
    7.7472   -1.2480    2.4731 H   0  0  0  0  0  0  0  0  0  0  0  0
    9.1934   -2.2588    2.4089 H   0  0  0  0  0  0  0  0  0  0  0  0
    9.0759   -0.8327    1.3749 H   0  0  0  0  0  0  0  0  0  0  0  0
    6.4164   -2.4739   -0.8898 H   0  0  0  0  0  0  0  0  0  0  0  0
    7.5475    0.0940   -0.0279 H   0  0  0  0  0  0  0  0  0  0  0  0
    8.0299   -0.7552   -1.3298 H   0  0  0  0  0  0  0  0  0  0  0  0
    5.0923   -0.0090   -0.5504 H   0  0  0  0  0  0  0  0  0  0  0  0
    2.9631   -0.9190    1.2544 H   0  0  0  0  0  0  0  0  0  0  0  0
    0.9118    0.1281    0.8214 H   0  0  0  0  0  0  0  0  0  0  0  0
    0.7600    2.1669   -1.2797 H   0  0  0  0  0  0  0  0  0  0  0  0
   -0.7181    0.6656   -2.7145 H   0  0  0  0  0  0  0  0  0  0  0  0
    0.9881    0.2157   -2.6994 H   0  0  0  0  0  0  0  0  0  0  0  0
   -0.3662   -1.9282   -2.8333 H   0  0  0  0  0  0  0  0  0  0  0  0
   -1.5716    2.7995   -1.7335 H   0  0  0  0  0  0  0  0  0  0  0  0
   -2.9422    3.0193    0.8851 H   0  0  0  0  0  0  0  0  0  0  0  0
   -3.1412    0.6022    0.5891 H   0  0  0  0  0  0  0  0  0  0  0  0
   -4.5961   -1.1359    0.5468 H   0  0  0  0  0  0  0  0  0  0  0  0
   -6.6443    0.5563    0.2539 H   0  0  0  0  0  0  0  0  0  0  0  0
   -6.5053    0.2012   -1.4567 H   0  0  0  0  0  0  0  0  0  0  0  0
   -6.9816   -1.3897    1.9170 H   0  0  0  0  0  0  0  0  0  0  0  0
   -8.3237   -3.4375    2.2530 H   0  0  0  0  0  0  0  0  0  0  0  0
   -9.6653   -5.2466   -0.4616 H   0  0  0  0  0  0  0  0  0  0  0  0
   -8.7993   -3.8363   -2.0037 H   0  0  0  0  0  0  0  0  0  0  0  0
   -7.4642   -1.8046   -2.3551 H   0  0  0  0  0  0  0  0  0  0  0  0
   -3.7814   -2.6388   -2.4007 H   0  0  0  0  0  0  0  0  0  0  0  0
   -4.4114    4.6395   -0.5164 H   0  0  0  0  0  0  0  0  0  0  0  0
   -2.7282    6.4259   -0.6548 H   0  0  0  0  0  0  0  0  0  0  0  0
   -1.4113    5.2710   -0.5496 H   0  0  0  0  0  0  0  0  0  0  0  0
   -2.4872    5.5099    0.8488 H   0  0  0  0  0  0  0  0  0  0  0  0
   -4.0040    3.7989   -2.5260 H   0  0  0  0  0  0  0  0  0  0  0  0
    4.5450    0.3682    2.7330 H   0  0  0  0  0  0  0  0  0  0  0  0
    2.8966    1.6921    3.8782 H   0  0  0  0  0  0  0  0  0  0  0  0
    2.0907    0.2556    3.2371 H   0  0  0  0  0  0  0  0  0  0  0  0
    1.8808    1.8310    2.4436 H   0  0  0  0  0  0  0  0  0  0  0  0
    4.7817    2.7907    2.5449 H   0  0  0  0  0  0  0  0  0  0  0  0
    5.3987    2.0229    1.0796 H   0  0  0  0  0  0  0  0  0  0  0  0
    3.8175    2.8270    1.0646 H   0  0  0  0  0  0  0  0  0  0  0  0
  1  2  1  0
  2  3  1  0
  2  4  1  0
  4  5  1  0
  4  6  1  0
  6  7  2  0
  6  8  1  0
  8  9  1  0
  9 10  1  0
 10 11  2  0
 10 12  1  0
 12 13  1  0
 13 14  1  0
 14 15  1  0
 13 16  1  0
 16 17  2  0
 16 18  1  0
 18 19  1  0
 19 20  1  0
 20 21  2  0
 20 22  1  0
 22 23  1  0
 23 24  1  0
 24 25  1  0
 25 26  2  0
 26 27  1  0
 27 28  2  0
 28 29  1  0
 28 30  1  0
 30 31  2  0
 23 32  1  0
 32 33  2  0
 32 34  1  0
 19 35  1  0
 35 36  1  0
 35 37  1  0
  9 38  1  0
 38 39  1  0
 38 40  1  0
 31 25  1  0
  1 41  1  0
  1 42  1  0
  1 43  1  0
  2 44  1  0
  3 45  1  0
  3 46  1  0
  3 47  1  0
  4 48  1  6
  5 49  1  0
  5 50  1  0
  8 51  1  0
  9 52  1  1
 12 53  1  0
 13 54  1  6
 14 55  1  0
 14 56  1  0
 15 57  1  0
 18 58  1  0
 19 59  1  1
 22 60  1  0
 23 61  1  1
 24 62  1  0
 24 63  1  0
 26 64  1  0
 27 65  1  0
 29 66  1  0
 30 67  1  0
 31 68  1  0
 34 69  1  0
 35 70  1  6
 36 71  1  0
 36 72  1  0
 36 73  1  0
 37 74  1  0
 38 75  1  0
 39 76  1  0
 39 77  1  0
 39 78  1  0
 40 79  1  0
 40 80  1  0
 40 81  1  0
M  END
$$$$
VVCTY.sdf
     RDKit          3D

 81 81  0  0  0  0  0  0  0  0999 V2000
    6.8871   -1.9196   -1.0140 C   0  0  0  0  0  0  0  0  0  0  0  0
    6.7642   -2.5843    0.3595 C   0  0  0  0  0  0  0  0  0  0  0  0
    5.4258   -3.3250    0.4556 C   0  0  0  0  0  0  0  0  0  0  0  0
    7.0148   -1.5888    1.5163 C   0  0  2  0  0  0  0  0  0  0  0  0
    7.1919   -2.3144    2.7954 N   0  0  0  0  0  0  0  0  0  0  0  0
    5.8820   -0.5470    1.6973 C   0  0  0  0  0  0  0  0  0  0  0  0
    4.9237   -0.7360    2.4473 O   0  0  0  0  0  0  0  0  0  0  0  0
    6.0377    0.6184    0.9730 N   0  0  0  0  0  0  0  0  0  0  0  0
    4.9584    1.6055    0.9752 C   0  0  2  0  0  0  0  0  0  0  0  0
    3.8566    1.0859    0.0281 C   0  0  0  0  0  0  0  0  0  0  0  0
    4.1023    0.5547   -1.0539 O   0  0  0  0  0  0  0  0  0  0  0  0
    2.5758    1.2531    0.4919 N   0  0  0  0  0  0  0  0  0  0  0  0
    1.4294    0.6505   -0.1823 C   0  0  1  0  0  0  0  0  0  0  0  0
    1.3981   -0.8830   -0.0616 C   0  0  0  0  0  0  0  0  0  0  0  0
    1.4265   -1.4974    1.6590 S   0  0  0  0  0  0  0  0  0  0  0  0
    0.1467    1.2999    0.3707 C   0  0  0  0  0  0  0  0  0  0  0  0
    0.1543    2.0733    1.3299 O   0  0  0  0  0  0  0  0  0  0  0  0
   -1.0116    0.9849   -0.2910 N   0  0  0  0  0  0  0  0  0  0  0  0
   -2.3368    1.4821    0.1172 C   0  0  2  0  0  0  0  0  0  0  0  0
   -3.3451    0.6230   -0.6633 C   0  0  0  0  0  0  0  0  0  0  0  0
   -3.0943    0.2034   -1.7930 O   0  0  0  0  0  0  0  0  0  0  0  0
   -4.5173    0.3405    0.0012 N   0  0  0  0  0  0  0  0  0  0  0  0
   -5.6271   -0.3568   -0.6682 C   0  0  1  0  0  0  0  0  0  0  0  0
   -6.3593   -1.2616    0.3302 C   0  0  0  0  0  0  0  0  0  0  0  0
   -7.4103   -2.1406   -0.3038 C   0  0  0  0  0  0  0  0  0  0  0  0
   -7.0375   -3.2490   -1.0784 C   0  0  0  0  0  0  0  0  0  0  0  0
   -8.0085   -4.0543   -1.6782 C   0  0  0  0  0  0  0  0  0  0  0  0
   -9.3538   -3.7501   -1.5018 C   0  0  0  0  0  0  0  0  0  0  0  0
  -10.3346   -4.5080   -2.0696 O   0  0  0  0  0  0  0  0  0  0  0  0
   -9.7418   -2.6575   -0.7367 C   0  0  0  0  0  0  0  0  0  0  0  0
   -8.7724   -1.8523   -0.1374 C   0  0  0  0  0  0  0  0  0  0  0  0
   -6.5782    0.7121   -1.1986 C   0  0  0  0  0  0  0  0  0  0  0  0
   -6.8958    1.7361   -0.6096 O   0  0  0  0  0  0  0  0  0  0  0  0
   -7.0782    0.4354   -2.4169 O   0  0  0  0  0  0  0  0  0  0  0  0
   -2.4816    2.9990   -0.1521 C   0  0  1  0  0  0  0  0  0  0  0  0
   -3.9124    3.4941   -0.3184 C   0  0  0  0  0  0  0  0  0  0  0  0
   -1.9351    3.7463    0.9459 O   0  0  0  0  0  0  0  0  0  0  0  0
    5.4639    3.0166    0.6065 C   0  0  0  0  0  0  0  0  0  0  0  0
    4.3960    4.0803    0.8788 C   0  0  0  0  0  0  0  0  0  0  0  0
    5.9643    3.1438   -0.8357 C   0  0  0  0  0  0  0  0  0  0  0  0
    7.8245   -1.3602   -1.0976 H   0  0  0  0  0  0  0  0  0  0  0  0
    6.8821   -2.6764   -1.8063 H   0  0  0  0  0  0  0  0  0  0  0  0
    6.0573   -1.2365   -1.2112 H   0  0  0  0  0  0  0  0  0  0  0  0
    7.5579   -3.3437    0.4053 H   0  0  0  0  0  0  0  0  0  0  0  0
    4.5778   -2.6383    0.3675 H   0  0  0  0  0  0  0  0  0  0  0  0
    5.3378   -4.0610   -0.3514 H   0  0  0  0  0  0  0  0  0  0  0  0
    5.3316   -3.8674    1.4010 H   0  0  0  0  0  0  0  0  0  0  0  0
    7.9501   -1.0469    1.3296 H   0  0  0  0  0  0  0  0  0  0  0  0
    7.4006   -1.6299    3.5242 H   0  0  0  0  0  0  0  0  0  0  0  0
    6.2749   -2.6813    3.0682 H   0  0  0  0  0  0  0  0  0  0  0  0
    6.5812    0.5474    0.1216 H   0  0  0  0  0  0  0  0  0  0  0  0
    4.5542    1.6375    1.9953 H   0  0  0  0  0  0  0  0  0  0  0  0
    2.4171    1.5664    1.4462 H   0  0  0  0  0  0  0  0  0  0  0  0
    1.4989    0.9196   -1.2440 H   0  0  0  0  0  0  0  0  0  0  0  0
    2.2603   -1.3226   -0.5734 H   0  0  0  0  0  0  0  0  0  0  0  0
    0.4996   -1.2875   -0.5383 H   0  0  0  0  0  0  0  0  0  0  0  0
    2.6922   -1.1298    1.9378 H   0  0  0  0  0  0  0  0  0  0  0  0
   -0.9848    0.4632   -1.1643 H   0  0  0  0  0  0  0  0  0  0  0  0
   -2.4347    1.2745    1.1901 H   0  0  0  0  0  0  0  0  0  0  0  0
   -4.7714    0.9325    0.7863 H   0  0  0  0  0  0  0  0  0  0  0  0
   -5.2274   -0.9306   -1.5117 H   0  0  0  0  0  0  0  0  0  0  0  0
   -5.6352   -1.9104    0.8416 H   0  0  0  0  0  0  0  0  0  0  0  0
   -6.8160   -0.6563    1.1252 H   0  0  0  0  0  0  0  0  0  0  0  0
   -5.9867   -3.4936   -1.2207 H   0  0  0  0  0  0  0  0  0  0  0  0
   -7.6972   -4.9063   -2.2742 H   0  0  0  0  0  0  0  0  0  0  0  0
   -9.9178   -5.2307   -2.5668 H   0  0  0  0  0  0  0  0  0  0  0  0
  -10.7968   -2.4335   -0.6068 H   0  0  0  0  0  0  0  0  0  0  0  0
   -9.0921   -0.9999    0.4583 H   0  0  0  0  0  0  0  0  0  0  0  0
   -7.6755    1.1835   -2.6246 H   0  0  0  0  0  0  0  0  0  0  0  0
   -1.9123    3.2794   -1.0464 H   0  0  0  0  0  0  0  0  0  0  0  0
   -4.3905    3.0668   -1.2040 H   0  0  0  0  0  0  0  0  0  0  0  0
   -3.9262    4.5850   -0.4237 H   0  0  0  0  0  0  0  0  0  0  0  0
   -4.5150    3.2632    0.5664 H   0  0  0  0  0  0  0  0  0  0  0  0
   -1.0768    3.3345    1.1905 H   0  0  0  0  0  0  0  0  0  0  0  0
    6.3163    3.2405    1.2627 H   0  0  0  0  0  0  0  0  0  0  0  0
    3.5352    3.9702    0.2115 H   0  0  0  0  0  0  0  0  0  0  0  0
    4.0383    4.0199    1.9120 H   0  0  0  0  0  0  0  0  0  0  0  0
    4.8064    5.0848    0.7285 H   0  0  0  0  0  0  0  0  0  0  0  0
    6.3887    4.1398   -1.0046 H   0  0  0  0  0  0  0  0  0  0  0  0
    5.1555    3.0062   -1.5602 H   0  0  0  0  0  0  0  0  0  0  0  0
    6.7499    2.4146   -1.0546 H   0  0  0  0  0  0  0  0  0  0  0  0
  1  2  1  0
  2  3  1  0
  2  4  1  0
  4  5  1  0
  4  6  1  0
  6  7  2  0
  6  8  1  0
  8  9  1  0
  9 10  1  0
 10 11  2  0
 10 12  1  0
 12 13  1  0
 13 14  1  0
 14 15  1  0
 13 16  1  0
 16 17  2  0
 16 18  1  0
 18 19  1  0
 19 20  1  0
 20 21  2  0
 20 22  1  0
 22 23  1  0
 23 24  1  0
 24 25  1  0
 25 26  2  0
 26 27  1  0
 27 28  2  0
 28 29  1  0
 28 30  1  0
 30 31  2  0
 23 32  1  0
 32 33  2  0
 32 34  1  0
 19 35  1  0
 35 36  1  0
 35 37  1  0
  9 38  1  0
 38 39  1  0
 38 40  1  0
 31 25  1  0
  1 41  1  0
  1 42  1  0
  1 43  1  0
  2 44  1  0
  3 45  1  0
  3 46  1  0
  3 47  1  0
  4 48  1  6
  5 49  1  0
  5 50  1  0
  8 51  1  0
  9 52  1  1
 12 53  1  0
 13 54  1  6
 14 55  1  0
 14 56  1  0
 15 57  1  0
 18 58  1  0
 19 59  1  1
 22 60  1  0
 23 61  1  6
 24 62  1  0
 24 63  1  0
 26 64  1  0
 27 65  1  0
 29 66  1  0
 30 67  1  0
 31 68  1  0
 34 69  1  0
 35 70  1  6
 36 71  1  0
 36 72  1  0
 36 73  1  0
 37 74  1  0
 38 75  1  0
 39 76  1  0
 39 77  1  0
 39 78  1  0
 40 79  1  0
 40 80  1  0
 40 81  1  0
M  END
$$$$
VVCTY.sdf
     RDKit          3D

 81 81  0  0  0  0  0  0  0  0999 V2000
    9.3506   -1.7017   -0.1688 C   0  0  0  0  0  0  0  0  0  0  0  0
    8.2084   -0.9437    0.5207 C   0  0  0  0  0  0  0  0  0  0  0  0
    8.5154   -0.8425    2.0205 C   0  0  0  0  0  0  0  0  0  0  0  0
    6.8417   -1.6281    0.2783 C   0  0  2  0  0  0  0  0  0  0  0  0
    6.5407   -1.7539   -1.1643 N   0  0  0  0  0  0  0  0  0  0  0  0
    5.6549   -0.8972    0.9506 C   0  0  0  0  0  0  0  0  0  0  0  0
    4.7828   -1.4955    1.5773 O   0  0  0  0  0  0  0  0  0  0  0  0
    5.5933    0.4620    0.7060 N   0  0  0  0  0  0  0  0  0  0  0  0
    4.3782    1.1980    1.0487 C   0  0  2  0  0  0  0  0  0  0  0  0
    3.4066    0.8982   -0.1105 C   0  0  0  0  0  0  0  0  0  0  0  0
    3.7550    0.9378   -1.2907 O   0  0  0  0  0  0  0  0  0  0  0  0
    2.1353    0.5619    0.2773 N   0  0  0  0  0  0  0  0  0  0  0  0
    1.1333    0.0850   -0.6725 C   0  0  1  0  0  0  0  0  0  0  0  0
    1.4419   -1.3219   -1.2112 C   0  0  0  0  0  0  0  0  0  0  0  0
    1.6305   -2.5972    0.0835 S   0  0  0  0  0  0  0  0  0  0  0  0
   -0.2486    0.1607    0.0050 C   0  0  0  0  0  0  0  0  0  0  0  0
   -0.3788    0.3984    1.2059 O   0  0  0  0  0  0  0  0  0  0  0  0
   -1.3229   -0.0275   -0.8280 N   0  0  0  0  0  0  0  0  0  0  0  0
   -2.6956   -0.1249   -0.3268 C   0  0  2  0  0  0  0  0  0  0  0  0
   -3.5431   -0.7636   -1.4496 C   0  0  0  0  0  0  0  0  0  0  0  0
   -3.0537   -1.0718   -2.5378 O   0  0  0  0  0  0  0  0  0  0  0  0
   -4.8571   -1.0038   -1.1208 N   0  0  0  0  0  0  0  0  0  0  0  0
   -5.8176   -1.4762   -2.1188 C   0  0  1  0  0  0  0  0  0  0  0  0
   -6.9452   -2.3104   -1.4893 C   0  0  0  0  0  0  0  0  0  0  0  0
   -7.7942   -1.5783   -0.4724 C   0  0  0  0  0  0  0  0  0  0  0  0
   -7.4197   -1.5512    0.8789 C   0  0  0  0  0  0  0  0  0  0  0  0
   -8.1895   -0.8565    1.8125 C   0  0  0  0  0  0  0  0  0  0  0  0
   -9.3371   -0.1917    1.4007 C   0  0  0  0  0  0  0  0  0  0  0  0
  -10.0588    0.4755    2.3456 O   0  0  0  0  0  0  0  0  0  0  0  0
   -9.7314   -0.2113    0.0673 C   0  0  0  0  0  0  0  0  0  0  0  0
   -8.9598   -0.9054   -0.8679 C   0  0  0  0  0  0  0  0  0  0  0  0
   -6.3741   -0.2987   -2.9223 C   0  0  0  0  0  0  0  0  0  0  0  0
   -6.2398    0.8916   -2.6822 O   0  0  0  0  0  0  0  0  0  0  0  0
   -7.0782   -0.6886   -4.0074 O   0  0  0  0  0  0  0  0  0  0  0  0
   -3.2711    1.2234    0.1602 C   0  0  1  0  0  0  0  0  0  0  0  0
   -3.3383    2.2899   -0.9281 C   0  0  0  0  0  0  0  0  0  0  0  0
   -4.5843    1.0232    0.7047 O   0  0  0  0  0  0  0  0  0  0  0  0
    4.6453    2.7114    1.1738 C   0  0  0  0  0  0  0  0  0  0  0  0
    3.3662    3.4816    1.5187 C   0  0  0  0  0  0  0  0  0  0  0  0
    5.7074    2.9981    2.2419 C   0  0  0  0  0  0  0  0  0  0  0  0
   10.3149   -1.2277    0.0446 H   0  0  0  0  0  0  0  0  0  0  0  0
    9.4019   -2.7402    0.1758 H   0  0  0  0  0  0  0  0  0  0  0  0
    9.2270   -1.7085   -1.2563 H   0  0  0  0  0  0  0  0  0  0  0  0
    8.1959    0.0752    0.1134 H   0  0  0  0  0  0  0  0  0  0  0  0
    8.5295   -1.8323    2.4895 H   0  0  0  0  0  0  0  0  0  0  0  0
    7.7732   -0.2302    2.5419 H   0  0  0  0  0  0  0  0  0  0  0  0
    9.4933   -0.3773    2.1855 H   0  0  0  0  0  0  0  0  0  0  0  0
    6.8762   -2.6391    0.7039 H   0  0  0  0  0  0  0  0  0  0  0  0
    5.6813   -2.2987   -1.2643 H   0  0  0  0  0  0  0  0  0  0  0  0
    6.3281   -0.8417   -1.5661 H   0  0  0  0  0  0  0  0  0  0  0  0
    6.0799    0.7845   -0.1221 H   0  0  0  0  0  0  0  0  0  0  0  0
    3.9757    0.8009    1.9883 H   0  0  0  0  0  0  0  0  0  0  0  0
    1.9209    0.4124    1.2606 H   0  0  0  0  0  0  0  0  0  0  0  0
    1.1234    0.7900   -1.5136 H   0  0  0  0  0  0  0  0  0  0  0  0
    2.3739   -1.3107   -1.7855 H   0  0  0  0  0  0  0  0  0  0  0  0
    0.6507   -1.6585   -1.8883 H   0  0  0  0  0  0  0  0  0  0  0  0
    2.7274   -2.0766    0.6662 H   0  0  0  0  0  0  0  0  0  0  0  0
   -1.1917   -0.3311   -1.7900 H   0  0  0  0  0  0  0  0  0  0  0  0
   -2.6943   -0.8396    0.5069 H   0  0  0  0  0  0  0  0  0  0  0  0
   -5.2240   -0.3955   -0.3829 H   0  0  0  0  0  0  0  0  0  0  0  0
   -5.2691   -2.1080   -2.8286 H   0  0  0  0  0  0  0  0  0  0  0  0
   -6.5108   -3.1950   -1.0042 H   0  0  0  0  0  0  0  0  0  0  0  0
   -7.6024   -2.7030   -2.2763 H   0  0  0  0  0  0  0  0  0  0  0  0
   -6.5228   -2.0677    1.2152 H   0  0  0  0  0  0  0  0  0  0  0  0
   -7.8937   -0.8349    2.8575 H   0  0  0  0  0  0  0  0  0  0  0  0
  -10.8331    0.8756    1.9175 H   0  0  0  0  0  0  0  0  0  0  0  0
  -10.6282    0.3036   -0.2619 H   0  0  0  0  0  0  0  0  0  0  0  0
   -9.2774   -0.9177   -1.9084 H   0  0  0  0  0  0  0  0  0  0  0  0
   -7.3248    0.1572   -4.4387 H   0  0  0  0  0  0  0  0  0  0  0  0
   -2.6509    1.6053    0.9786 H   0  0  0  0  0  0  0  0  0  0  0  0
   -3.7538    3.2192   -0.5230 H   0  0  0  0  0  0  0  0  0  0  0  0
   -3.9983    1.9880   -1.7460 H   0  0  0  0  0  0  0  0  0  0  0  0
   -2.3485    2.5085   -1.3393 H   0  0  0  0  0  0  0  0  0  0  0  0
   -4.8801    1.8801    1.0652 H   0  0  0  0  0  0  0  0  0  0  0  0
    5.0206    3.0948    0.2156 H   0  0  0  0  0  0  0  0  0  0  0  0
    2.6220    3.3966    0.7208 H   0  0  0  0  0  0  0  0  0  0  0  0
    2.9170    3.1099    2.4459 H   0  0  0  0  0  0  0  0  0  0  0  0
    3.5785    4.5482    1.6502 H   0  0  0  0  0  0  0  0  0  0  0  0
    5.3996    2.6123    3.2198 H   0  0  0  0  0  0  0  0  0  0  0  0
    5.8769    4.0757    2.3417 H   0  0  0  0  0  0  0  0  0  0  0  0
    6.6675    2.5406    1.9825 H   0  0  0  0  0  0  0  0  0  0  0  0
  1  2  1  0
  2  3  1  0
  2  4  1  0
  4  5  1  0
  4  6  1  0
  6  7  2  0
  6  8  1  0
  8  9  1  0
  9 10  1  0
 10 11  2  0
 10 12  1  0
 12 13  1  0
 13 14  1  0
 14 15  1  0
 13 16  1  0
 16 17  2  0
 16 18  1  0
 18 19  1  0
 19 20  1  0
 20 21  2  0
 20 22  1  0
 22 23  1  0
 23 24  1  0
 24 25  1  0
 25 26  2  0
 26 27  1  0
 27 28  2  0
 28 29  1  0
 28 30  1  0
 30 31  2  0
 23 32  1  0
 32 33  2  0
 32 34  1  0
 19 35  1  0
 35 36  1  0
 35 37  1  0
  9 38  1  0
 38 39  1  0
 38 40  1  0
 31 25  1  0
  1 41  1  0
  1 42  1  0
  1 43  1  0
  2 44  1  0
  3 45  1  0
  3 46  1  0
  3 47  1  0
  4 48  1  1
  5 49  1  0
  5 50  1  0
  8 51  1  0
  9 52  1  1
 12 53  1  0
 13 54  1  6
 14 55  1  0
 14 56  1  0
 15 57  1  0
 18 58  1  0
 19 59  1  1
 22 60  1  0
 23 61  1  6
 24 62  1  0
 24 63  1  0
 26 64  1  0
 27 65  1  0
 29 66  1  0
 30 67  1  0
 31 68  1  0
 34 69  1  0
 35 70  1  1
 36 71  1  0
 36 72  1  0
 36 73  1  0
 37 74  1  0
 38 75  1  0
 39 76  1  0
 39 77  1  0
 39 78  1  0
 40 79  1  0
 40 80  1  0
 40 81  1  0
M  END
$$$$
VVCTY.sdf
     RDKit          3D

 81 81  0  0  0  0  0  0  0  0999 V2000
    8.9256    0.5517    0.5509 C   0  0  0  0  0  0  0  0  0  0  0  0
    7.4910    1.0638    0.3836 C   0  0  0  0  0  0  0  0  0  0  0  0
    7.5153    2.5298   -0.0641 C   0  0  0  0  0  0  0  0  0  0  0  0
    6.6761    0.1477   -0.5596 C   0  0  2  0  0  0  0  0  0  0  0  0
    7.1804    0.1591   -1.9492 N   0  0  0  0  0  0  0  0  0  0  0  0
    5.1683    0.5129   -0.5499 C   0  0  0  0  0  0  0  0  0  0  0  0
    4.6163    1.0214   -1.5225 O   0  0  0  0  0  0  0  0  0  0  0  0
    4.5301    0.2246    0.6435 N   0  0  0  0  0  0  0  0  0  0  0  0
    3.0681    0.2462    0.7983 C   0  0  2  0  0  0  0  0  0  0  0  0
    2.5111   -1.0700    0.1867 C   0  0  0  0  0  0  0  0  0  0  0  0
    3.0904   -1.7164   -0.6840 O   0  0  0  0  0  0  0  0  0  0  0  0
    1.3286   -1.5103    0.7305 N   0  0  0  0  0  0  0  0  0  0  0  0
    0.5749   -2.6470    0.1935 C   0  0  1  0  0  0  0  0  0  0  0  0
    0.9180   -3.9714    0.8862 C   0  0  0  0  0  0  0  0  0  0  0  0
    2.4138   -4.7743    0.2239 S   0  0  0  0  0  0  0  0  0  0  0  0
   -0.9083   -2.3260    0.4493 C   0  0  0  0  0  0  0  0  0  0  0  0
   -1.2517   -1.5511    1.3417 O   0  0  0  0  0  0  0  0  0  0  0  0
   -1.8000   -3.0041   -0.3473 N   0  0  0  0  0  0  0  0  0  0  0  0
   -3.2302   -2.6734   -0.4545 C   0  0  2  0  0  0  0  0  0  0  0  0
   -3.3647   -1.5092   -1.4552 C   0  0  0  0  0  0  0  0  0  0  0  0
   -3.2732   -1.7062   -2.6676 O   0  0  0  0  0  0  0  0  0  0  0  0
   -3.4217   -0.2500   -0.9241 N   0  0  0  0  0  0  0  0  0  0  0  0
   -3.4758    0.9596   -1.7437 C   0  0  1  0  0  0  0  0  0  0  0  0
   -4.8706    1.2250   -2.3353 C   0  0  0  0  0  0  0  0  0  0  0  0
   -5.9760    1.3727   -1.3122 C   0  0  0  0  0  0  0  0  0  0  0  0
   -6.7102    0.2525   -0.8966 C   0  0  0  0  0  0  0  0  0  0  0  0
   -7.7182    0.3816    0.0592 C   0  0  0  0  0  0  0  0  0  0  0  0
   -7.9974    1.6297    0.6004 C   0  0  0  0  0  0  0  0  0  0  0  0
   -8.9903    1.7108    1.5314 O   0  0  0  0  0  0  0  0  0  0  0  0
   -7.2865    2.7553    0.1983 C   0  0  0  0  0  0  0  0  0  0  0  0
   -6.2775    2.6258   -0.7591 C   0  0  0  0  0  0  0  0  0  0  0  0
   -2.9506    2.1455   -0.9355 C   0  0  0  0  0  0  0  0  0  0  0  0
   -2.5694    2.1294    0.2254 O   0  0  0  0  0  0  0  0  0  0  0  0
   -2.8787    3.2894   -1.6483 O   0  0  0  0  0  0  0  0  0  0  0  0
   -4.0602   -2.5167    0.8418 C   0  0  1  0  0  0  0  0  0  0  0  0
   -3.9190   -3.7112    1.7779 C   0  0  0  0  0  0  0  0  0  0  0  0
   -3.7667   -1.3229    1.5689 O   0  0  0  0  0  0  0  0  0  0  0  0
    2.3667    1.5409    0.3076 C   0  0  0  0  0  0  0  0  0  0  0  0
    3.0185    2.7879    0.9233 C   0  0  0  0  0  0  0  0  0  0  0  0
    0.8685    1.5764    0.6340 C   0  0  0  0  0  0  0  0  0  0  0  0
    9.4663    1.1542    1.2889 H   0  0  0  0  0  0  0  0  0  0  0  0
    9.4847    0.5954   -0.3896 H   0  0  0  0  0  0  0  0  0  0  0  0
    8.9294   -0.4853    0.9026 H   0  0  0  0  0  0  0  0  0  0  0  0
    7.0223    1.0397    1.3762 H   0  0  0  0  0  0  0  0  0  0  0  0
    8.0391    2.6562   -1.0172 H   0  0  0  0  0  0  0  0  0  0  0  0
    6.5028    2.9295   -0.1748 H   0  0  0  0  0  0  0  0  0  0  0  0
    8.0316    3.1470    0.6794 H   0  0  0  0  0  0  0  0  0  0  0  0
    6.7521   -0.8874   -0.2023 H   0  0  0  0  0  0  0  0  0  0  0  0
    6.6052   -0.4949   -2.4873 H   0  0  0  0  0  0  0  0  0  0  0  0
    6.9267    1.0650   -2.3546 H   0  0  0  0  0  0  0  0  0  0  0  0
    5.0151   -0.4330    1.2407 H   0  0  0  0  0  0  0  0  0  0  0  0
    2.9172    0.1668    1.8839 H   0  0  0  0  0  0  0  0  0  0  0  0
    0.8468   -0.9487    1.4281 H   0  0  0  0  0  0  0  0  0  0  0  0
    0.7315   -2.6991   -0.8909 H   0  0  0  0  0  0  0  0  0  0  0  0
    0.1037   -4.6965    0.7834 H   0  0  0  0  0  0  0  0  0  0  0  0
    1.0697   -3.8119    1.9598 H   0  0  0  0  0  0  0  0  0  0  0  0
    3.0750   -3.6459   -0.1000 H   0  0  0  0  0  0  0  0  0  0  0  0
   -1.4180   -3.4094   -1.1969 H   0  0  0  0  0  0  0  0  0  0  0  0
   -3.6598   -3.5413   -0.9754 H   0  0  0  0  0  0  0  0  0  0  0  0
   -3.5437   -0.1446    0.0875 H   0  0  0  0  0  0  0  0  0  0  0  0
   -2.7679    0.8131   -2.5696 H   0  0  0  0  0  0  0  0  0  0  0  0
   -5.1386    0.4080   -3.0184 H   0  0  0  0  0  0  0  0  0  0  0  0
   -4.8495    2.1271   -2.9605 H   0  0  0  0  0  0  0  0  0  0  0  0
   -6.5031   -0.7287   -1.3165 H   0  0  0  0  0  0  0  0  0  0  0  0
   -8.2833   -0.4881    0.3811 H   0  0  0  0  0  0  0  0  0  0  0  0
   -9.0517    2.6304    1.8367 H   0  0  0  0  0  0  0  0  0  0  0  0
   -7.5019    3.7345    0.6134 H   0  0  0  0  0  0  0  0  0  0  0  0
   -5.7316    3.5128   -1.0731 H   0  0  0  0  0  0  0  0  0  0  0  0
   -2.4848    3.9319   -1.0204 H   0  0  0  0  0  0  0  0  0  0  0  0
   -5.1150   -2.4303    0.5546 H   0  0  0  0  0  0  0  0  0  0  0  0
   -4.5773   -3.5913    2.6454 H   0  0  0  0  0  0  0  0  0  0  0  0
   -4.1781   -4.6461    1.2721 H   0  0  0  0  0  0  0  0  0  0  0  0
   -2.9010   -3.7944    2.1721 H   0  0  0  0  0  0  0  0  0  0  0  0
   -2.8121   -1.3511    1.8070 H   0  0  0  0  0  0  0  0  0  0  0  0
    2.4440    1.6160   -0.7824 H   0  0  0  0  0  0  0  0  0  0  0  0
    4.0698    2.8805    0.6371 H   0  0  0  0  0  0  0  0  0  0  0  0
    2.5130    3.6988    0.5844 H   0  0  0  0  0  0  0  0  0  0  0  0
    2.9656    2.7606    2.0172 H   0  0  0  0  0  0  0  0  0  0  0  0
    0.3172    0.8320    0.0523 H   0  0  0  0  0  0  0  0  0  0  0  0
    0.4375    2.5512    0.3794 H   0  0  0  0  0  0  0  0  0  0  0  0
    0.6861    1.3980    1.6989 H   0  0  0  0  0  0  0  0  0  0  0  0
  1  2  1  0
  2  3  1  0
  2  4  1  0
  4  5  1  0
  4  6  1  0
  6  7  2  0
  6  8  1  0
  8  9  1  0
  9 10  1  0
 10 11  2  0
 10 12  1  0
 12 13  1  0
 13 14  1  0
 14 15  1  0
 13 16  1  0
 16 17  2  0
 16 18  1  0
 18 19  1  0
 19 20  1  0
 20 21  2  0
 20 22  1  0
 22 23  1  0
 23 24  1  0
 24 25  1  0
 25 26  2  0
 26 27  1  0
 27 28  2  0
 28 29  1  0
 28 30  1  0
 30 31  2  0
 23 32  1  0
 32 33  2  0
 32 34  1  0
 19 35  1  0
 35 36  1  0
 35 37  1  0
  9 38  1  0
 38 39  1  0
 38 40  1  0
 31 25  1  0
  1 41  1  0
  1 42  1  0
  1 43  1  0
  2 44  1  0
  3 45  1  0
  3 46  1  0
  3 47  1  0
  4 48  1  1
  5 49  1  0
  5 50  1  0
  8 51  1  0
  9 52  1  1
 12 53  1  0
 13 54  1  6
 14 55  1  0
 14 56  1  0
 15 57  1  0
 18 58  1  0
 19 59  1  6
 22 60  1  0
 23 61  1  6
 24 62  1  0
 24 63  1  0
 26 64  1  0
 27 65  1  0
 29 66  1  0
 30 67  1  0
 31 68  1  0
 34 69  1  0
 35 70  1  6
 36 71  1  0
 36 72  1  0
 36 73  1  0
 37 74  1  0
 38 75  1  0
 39 76  1  0
 39 77  1  0
 39 78  1  0
 40 79  1  0
 40 80  1  0
 40 81  1  0
M  END
$$$$
VVCTY.sdf
     RDKit          3D

 81 81  0  0  0  0  0  0  0  0999 V2000
    7.2438   -1.1483    1.6994 C   0  0  0  0  0  0  0  0  0  0  0  0
    7.5569   -0.6260    0.2925 C   0  0  0  0  0  0  0  0  0  0  0  0
    8.8808   -1.2221   -0.1981 C   0  0  0  0  0  0  0  0  0  0  0  0
    7.5677    0.9189    0.1987 C   0  0  2  0  0  0  0  0  0  0  0  0
    8.5809    1.5381    1.0804 N   0  0  0  0  0  0  0  0  0  0  0  0
    6.1744    1.5222    0.5109 C   0  0  0  0  0  0  0  0  0  0  0  0
    5.9444    2.1541    1.5410 O   0  0  0  0  0  0  0  0  0  0  0  0
    5.2277    1.3138   -0.4709 N   0  0  0  0  0  0  0  0  0  0  0  0
    3.8162    1.5793   -0.2005 C   0  0  2  0  0  0  0  0  0  0  0  0
    3.1751    0.2536    0.2721 C   0  0  0  0  0  0  0  0  0  0  0  0
    3.6843   -0.8424    0.0369 O   0  0  0  0  0  0  0  0  0  0  0  0
    1.9800    0.3970    0.9463 N   0  0  0  0  0  0  0  0  0  0  0  0
    1.1138   -0.7651    1.1800 C   0  0  1  0  0  0  0  0  0  0  0  0
    0.4921   -0.6952    2.5789 C   0  0  0  0  0  0  0  0  0  0  0  0
    0.0134   -2.3435    3.2042 S   0  0  0  0  0  0  0  0  0  0  0  0
    0.0328   -0.7357    0.0737 C   0  0  0  0  0  0  0  0  0  0  0  0
   -0.0576    0.1913   -0.7328 O   0  0  0  0  0  0  0  0  0  0  0  0
   -0.8156   -1.8232    0.0495 N   0  0  0  0  0  0  0  0  0  0  0  0
   -2.0209   -1.7840   -0.7870 C   0  0  2  0  0  0  0  0  0  0  0  0
   -3.1528   -1.1349    0.0412 C   0  0  0  0  0  0  0  0  0  0  0  0
   -3.0648   -0.9667    1.2571 O   0  0  0  0  0  0  0  0  0  0  0  0
   -4.2559   -0.7351   -0.6859 N   0  0  0  0  0  0  0  0  0  0  0  0
   -5.4931   -0.3154   -0.0077 C   0  0  1  0  0  0  0  0  0  0  0  0
   -6.1686    0.8130   -0.7949 C   0  0  0  0  0  0  0  0  0  0  0  0
   -7.3650    1.4125   -0.0961 C   0  0  0  0  0  0  0  0  0  0  0  0
   -8.6651    1.1364   -0.5448 C   0  0  0  0  0  0  0  0  0  0  0  0
   -9.7721    1.6845    0.1076 C   0  0  0  0  0  0  0  0  0  0  0  0
   -9.5775    2.5092    1.2104 C   0  0  0  0  0  0  0  0  0  0  0  0
  -10.6290    3.0656    1.8763 O   0  0  0  0  0  0  0  0  0  0  0  0
   -8.2975    2.7931    1.6691 C   0  0  0  0  0  0  0  0  0  0  0  0
   -7.1913    2.2464    1.0176 C   0  0  0  0  0  0  0  0  0  0  0  0
   -6.3969   -1.5442    0.0267 C   0  0  0  0  0  0  0  0  0  0  0  0
   -6.5336   -2.3457   -0.8886 O   0  0  0  0  0  0  0  0  0  0  0  0
   -7.0727   -1.6919    1.1801 O   0  0  0  0  0  0  0  0  0  0  0  0
   -2.4233   -3.1942   -1.2629 C   0  0  1  0  0  0  0  0  0  0  0  0
   -1.5187   -3.6871   -2.3889 C   0  0  0  0  0  0  0  0  0  0  0  0
   -2.3633   -4.1377   -0.1887 O   0  0  0  0  0  0  0  0  0  0  0  0
    3.0770    2.1588   -1.4274 C   0  0  0  0  0  0  0  0  0  0  0  0
    3.1471    1.2566   -2.6639 C   0  0  0  0  0  0  0  0  0  0  0  0
    3.6059    3.5547   -1.7712 C   0  0  0  0  0  0  0  0  0  0  0  0
    7.1772   -2.2419    1.6941 H   0  0  0  0  0  0  0  0  0  0  0  0
    8.0193   -0.8696    2.4201 H   0  0  0  0  0  0  0  0  0  0  0  0
    6.2848   -0.7650    2.0618 H   0  0  0  0  0  0  0  0  0  0  0  0
    6.7702   -1.0074   -0.3707 H   0  0  0  0  0  0  0  0  0  0  0  0
    9.7176   -0.9424    0.4504 H   0  0  0  0  0  0  0  0  0  0  0  0
    8.8264   -2.3159   -0.2188 H   0  0  0  0  0  0  0  0  0  0  0  0
    9.1072   -0.8820   -1.2141 H   0  0  0  0  0  0  0  0  0  0  0  0
    7.8157    1.2105   -0.8300 H   0  0  0  0  0  0  0  0  0  0  0  0
    8.5277    2.5508    0.9502 H   0  0  0  0  0  0  0  0  0  0  0  0
    8.2605    1.4137    2.0451 H   0  0  0  0  0  0  0  0  0  0  0  0
    5.3985    0.5319   -1.0933 H   0  0  0  0  0  0  0  0  0  0  0  0
    3.7373    2.2895    0.6321 H   0  0  0  0  0  0  0  0  0  0  0  0
    1.4919    1.2768    0.8128 H   0  0  0  0  0  0  0  0  0  0  0  0
    1.7058   -1.6785    1.0526 H   0  0  0  0  0  0  0  0  0  0  0  0
   -0.3954   -0.0533    2.5844 H   0  0  0  0  0  0  0  0  0  0  0  0
    1.2059   -0.2791    3.2981 H   0  0  0  0  0  0  0  0  0  0  0  0
    1.2605   -2.8027    3.3978 H   0  0  0  0  0  0  0  0  0  0  0  0
   -0.9628   -2.2737    0.9521 H   0  0  0  0  0  0  0  0  0  0  0  0
   -1.8471   -1.1345   -1.6538 H   0  0  0  0  0  0  0  0  0  0  0  0
   -4.3814   -1.1290   -1.6116 H   0  0  0  0  0  0  0  0  0  0  0  0
   -5.2589   -0.0101    1.0178 H   0  0  0  0  0  0  0  0  0  0  0  0
   -6.4653    0.4555   -1.7904 H   0  0  0  0  0  0  0  0  0  0  0  0
   -5.4446    1.6178   -0.9818 H   0  0  0  0  0  0  0  0  0  0  0  0
   -8.8269    0.4916   -1.4062 H   0  0  0  0  0  0  0  0  0  0  0  0
  -10.7690    1.4583   -0.2566 H   0  0  0  0  0  0  0  0  0  0  0  0
  -11.4526    2.7799    1.4489 H   0  0  0  0  0  0  0  0  0  0  0  0
   -8.1606    3.4381    2.5325 H   0  0  0  0  0  0  0  0  0  0  0  0
   -6.1944    2.4771    1.3877 H   0  0  0  0  0  0  0  0  0  0  0  0
   -7.5818   -2.5218    1.0757 H   0  0  0  0  0  0  0  0  0  0  0  0
   -3.4559   -3.1965   -1.6272 H   0  0  0  0  0  0  0  0  0  0  0  0
   -1.8166   -4.6936   -2.7021 H   0  0  0  0  0  0  0  0  0  0  0  0
   -0.4759   -3.7574   -2.0608 H   0  0  0  0  0  0  0  0  0  0  0  0
   -1.5687   -3.0231   -3.2572 H   0  0  0  0  0  0  0  0  0  0  0  0
   -1.4247   -4.2750    0.0317 H   0  0  0  0  0  0  0  0  0  0  0  0
    2.0159    2.2704   -1.1703 H   0  0  0  0  0  0  0  0  0  0  0  0
    2.5633    1.6877   -3.4847 H   0  0  0  0  0  0  0  0  0  0  0  0
    2.7346    0.2643   -2.4569 H   0  0  0  0  0  0  0  0  0  0  0  0
    4.1751    1.1334   -3.0197 H   0  0  0  0  0  0  0  0  0  0  0  0
    3.5304    4.2228   -0.9068 H   0  0  0  0  0  0  0  0  0  0  0  0
    3.0238    3.9984   -2.5861 H   0  0  0  0  0  0  0  0  0  0  0  0
    4.6539    3.5232   -2.0871 H   0  0  0  0  0  0  0  0  0  0  0  0
  1  2  1  0
  2  3  1  0
  2  4  1  0
  4  5  1  0
  4  6  1  0
  6  7  2  0
  6  8  1  0
  8  9  1  0
  9 10  1  0
 10 11  2  0
 10 12  1  0
 12 13  1  0
 13 14  1  0
 14 15  1  0
 13 16  1  0
 16 17  2  0
 16 18  1  0
 18 19  1  0
 19 20  1  0
 20 21  2  0
 20 22  1  0
 22 23  1  0
 23 24  1  0
 24 25  1  0
 25 26  2  0
 26 27  1  0
 27 28  2  0
 28 29  1  0
 28 30  1  0
 30 31  2  0
 23 32  1  0
 32 33  2  0
 32 34  1  0
 19 35  1  0
 35 36  1  0
 35 37  1  0
  9 38  1  0
 38 39  1  0
 38 40  1  0
 31 25  1  0
  1 41  1  0
  1 42  1  0
  1 43  1  0
  2 44  1  0
  3 45  1  0
  3 46  1  0
  3 47  1  0
  4 48  1  6
  5 49  1  0
  5 50  1  0
  8 51  1  0
  9 52  1  1
 12 53  1  0
 13 54  1  1
 14 55  1  0
 14 56  1  0
 15 57  1  0
 18 58  1  0
 19 59  1  6
 22 60  1  0
 23 61  1  1
 24 62  1  0
 24 63  1  0
 26 64  1  0
 27 65  1  0
 29 66  1  0
 30 67  1  0
 31 68  1  0
 34 69  1  0
 35 70  1  6
 36 71  1  0
 36 72  1  0
 36 73  1  0
 37 74  1  0
 38 75  1  0
 39 76  1  0
 39 77  1  0
 39 78  1  0
 40 79  1  0
 40 80  1  0
 40 81  1  0
M  END
$$$$
VVCTY.sdf
     RDKit          3D

 81 81  0  0  0  0  0  0  0  0999 V2000
    8.7131    1.1564    1.1993 C   0  0  0  0  0  0  0  0  0  0  0  0
    7.2481    1.3291    1.6221 C   0  0  0  0  0  0  0  0  0  0  0  0
    6.9052    0.2385    2.6469 C   0  0  0  0  0  0  0  0  0  0  0  0
    6.2826    1.2739    0.4145 C   0  0  2  0  0  0  0  0  0  0  0  0
    6.6886    2.2237   -0.6481 N   0  0  0  0  0  0  0  0  0  0  0  0
    4.8210    1.6231    0.8043 C   0  0  0  0  0  0  0  0  0  0  0  0
    4.5052    2.2060    1.8364 O   0  0  0  0  0  0  0  0  0  0  0  0
    3.9105    1.2920   -0.1851 N   0  0  0  0  0  0  0  0  0  0  0  0
    2.4745    1.3324    0.0815 C   0  0  2  0  0  0  0  0  0  0  0  0
    2.0068   -0.1144    0.3507 C   0  0  0  0  0  0  0  0  0  0  0  0
    2.6492   -1.0918   -0.0335 O   0  0  0  0  0  0  0  0  0  0  0  0
    0.8037   -0.2180    1.0139 N   0  0  0  0  0  0  0  0  0  0  0  0
    0.0799   -1.4939    1.0481 C   0  0  1  0  0  0  0  0  0  0  0  0
   -0.6874   -1.6134    2.3715 C   0  0  0  0  0  0  0  0  0  0  0  0
   -1.3085   -3.2904    2.7343 S   0  0  0  0  0  0  0  0  0  0  0  0
   -0.8631   -1.4990   -0.1802 C   0  0  0  0  0  0  0  0  0  0  0  0
   -1.0384   -0.5101   -0.8925 O   0  0  0  0  0  0  0  0  0  0  0  0
   -1.5150   -2.6946   -0.4194 N   0  0  0  0  0  0  0  0  0  0  0  0
   -2.7224   -2.6872   -1.2625 C   0  0  2  0  0  0  0  0  0  0  0  0
   -3.8709   -2.2205   -0.3506 C   0  0  0  0  0  0  0  0  0  0  0  0
   -3.9435   -2.5658    0.8294 O   0  0  0  0  0  0  0  0  0  0  0  0
   -4.7905   -1.3935   -0.9466 N   0  0  0  0  0  0  0  0  0  0  0  0
   -5.9040   -0.7929   -0.2044 C   0  0  1  0  0  0  0  0  0  0  0  0
   -5.8417    0.7425   -0.2192 C   0  0  0  0  0  0  0  0  0  0  0  0
   -4.5259    1.3053    0.2712 C   0  0  0  0  0  0  0  0  0  0  0  0
   -4.1073    1.1099    1.5950 C   0  0  0  0  0  0  0  0  0  0  0  0
   -2.8650    1.5846    2.0199 C   0  0  0  0  0  0  0  0  0  0  0  0
   -2.0430    2.2585    1.1265 C   0  0  0  0  0  0  0  0  0  0  0  0
   -0.8128    2.6589    1.5590 O   0  0  0  0  0  0  0  0  0  0  0  0
   -2.4500    2.4892   -0.1815 C   0  0  0  0  0  0  0  0  0  0  0  0
   -3.6905    2.0112   -0.6080 C   0  0  0  0  0  0  0  0  0  0  0  0
   -7.2047   -1.2438   -0.8583 C   0  0  0  0  0  0  0  0  0  0  0  0
   -7.3357   -1.6444   -2.0057 O   0  0  0  0  0  0  0  0  0  0  0  0
   -8.2744   -1.1286   -0.0468 O   0  0  0  0  0  0  0  0  0  0  0  0
   -2.9955   -4.0976   -1.8101 C   0  0  1  0  0  0  0  0  0  0  0  0
   -4.2019   -4.1601   -2.7371 C   0  0  0  0  0  0  0  0  0  0  0  0
   -1.8596   -4.5427   -2.5654 O   0  0  0  0  0  0  0  0  0  0  0  0
    1.6810    1.9696   -1.0810 C   0  0  0  0  0  0  0  0  0  0  0  0
    1.9817    3.4675   -1.1863 C   0  0  0  0  0  0  0  0  0  0  0  0
    1.9289    1.2916   -2.4324 C   0  0  0  0  0  0  0  0  0  0  0  0
    9.3709    1.1419    2.0752 H   0  0  0  0  0  0  0  0  0  0  0  0
    8.8595    0.2189    0.6519 H   0  0  0  0  0  0  0  0  0  0  0  0
    9.0461    1.9808    0.5609 H   0  0  0  0  0  0  0  0  0  0  0  0
    7.1543    2.3021    2.1224 H   0  0  0  0  0  0  0  0  0  0  0  0
    5.8907    0.3539    3.0392 H   0  0  0  0  0  0  0  0  0  0  0  0
    7.5901    0.2809    3.5009 H   0  0  0  0  0  0  0  0  0  0  0  0
    6.9833   -0.7598    2.2024 H   0  0  0  0  0  0  0  0  0  0  0  0
    6.2914    0.2621   -0.0095 H   0  0  0  0  0  0  0  0  0  0  0  0
    6.7164    3.1602   -0.2404 H   0  0  0  0  0  0  0  0  0  0  0  0
    5.9509    2.2589   -1.3526 H   0  0  0  0  0  0  0  0  0  0  0  0
    4.2006    0.5468   -0.8118 H   0  0  0  0  0  0  0  0  0  0  0  0
    2.2909    1.9047    0.9991 H   0  0  0  0  0  0  0  0  0  0  0  0
    0.2241    0.6183    1.0541 H   0  0  0  0  0  0  0  0  0  0  0  0
    0.7983   -2.3142    0.9366 H   0  0  0  0  0  0  0  0  0  0  0  0
   -0.0278   -1.3385    3.2021 H   0  0  0  0  0  0  0  0  0  0  0  0
   -1.5396   -0.9292    2.3942 H   0  0  0  0  0  0  0  0  0  0  0  0
   -2.5760   -3.0730    2.3254 H   0  0  0  0  0  0  0  0  0  0  0  0
   -1.5426   -3.3392    0.3678 H   0  0  0  0  0  0  0  0  0  0  0  0
   -2.5689   -1.9770   -2.0830 H   0  0  0  0  0  0  0  0  0  0  0  0
   -4.7402   -1.2122   -1.9433 H   0  0  0  0  0  0  0  0  0  0  0  0
   -5.8934   -1.1739    0.8228 H   0  0  0  0  0  0  0  0  0  0  0  0
   -6.6492    1.1574    0.3983 H   0  0  0  0  0  0  0  0  0  0  0  0
   -6.0362    1.1068   -1.2373 H   0  0  0  0  0  0  0  0  0  0  0  0
   -4.7354    0.5713    2.3012 H   0  0  0  0  0  0  0  0  0  0  0  0
   -2.5401    1.4207    3.0435 H   0  0  0  0  0  0  0  0  0  0  0  0
   -0.5324    3.4026    0.9966 H   0  0  0  0  0  0  0  0  0  0  0  0
   -1.8074    3.0017   -0.8903 H   0  0  0  0  0  0  0  0  0  0  0  0
   -3.9873    2.1742   -1.6417 H   0  0  0  0  0  0  0  0  0  0  0  0
   -9.0277   -1.4589   -0.5818 H   0  0  0  0  0  0  0  0  0  0  0  0
   -3.1354   -4.8100   -0.9883 H   0  0  0  0  0  0  0  0  0  0  0  0
   -4.0929   -3.4558   -3.5692 H   0  0  0  0  0  0  0  0  0  0  0  0
   -4.2903   -5.1579   -3.1809 H   0  0  0  0  0  0  0  0  0  0  0  0
   -5.1333   -3.9390   -2.2086 H   0  0  0  0  0  0  0  0  0  0  0  0
   -1.0642   -4.2769   -2.0658 H   0  0  0  0  0  0  0  0  0  0  0  0
    0.6109    1.8698   -0.8655 H   0  0  0  0  0  0  0  0  0  0  0  0
    1.3580    3.9335   -1.9567 H   0  0  0  0  0  0  0  0  0  0  0  0
    1.7716    3.9737   -0.2382 H   0  0  0  0  0  0  0  0  0  0  0  0
    3.0296    3.6515   -1.4460 H   0  0  0  0  0  0  0  0  0  0  0  0
    1.6839    0.2257   -2.3936 H   0  0  0  0  0  0  0  0  0  0  0  0
    1.2997    1.7433   -3.2072 H   0  0  0  0  0  0  0  0  0  0  0  0
    2.9709    1.3926   -2.7530 H   0  0  0  0  0  0  0  0  0  0  0  0
  1  2  1  0
  2  3  1  0
  2  4  1  0
  4  5  1  0
  4  6  1  0
  6  7  2  0
  6  8  1  0
  8  9  1  0
  9 10  1  0
 10 11  2  0
 10 12  1  0
 12 13  1  0
 13 14  1  0
 14 15  1  0
 13 16  1  0
 16 17  2  0
 16 18  1  0
 18 19  1  0
 19 20  1  0
 20 21  2  0
 20 22  1  0
 22 23  1  0
 23 24  1  0
 24 25  1  0
 25 26  2  0
 26 27  1  0
 27 28  2  0
 28 29  1  0
 28 30  1  0
 30 31  2  0
 23 32  1  0
 32 33  2  0
 32 34  1  0
 19 35  1  0
 35 36  1  0
 35 37  1  0
  9 38  1  0
 38 39  1  0
 38 40  1  0
 31 25  1  0
  1 41  1  0
  1 42  1  0
  1 43  1  0
  2 44  1  0
  3 45  1  0
  3 46  1  0
  3 47  1  0
  4 48  1  6
  5 49  1  0
  5 50  1  0
  8 51  1  0
  9 52  1  1
 12 53  1  0
 13 54  1  6
 14 55  1  0
 14 56  1  0
 15 57  1  0
 18 58  1  0
 19 59  1  6
 22 60  1  0
 23 61  1  1
 24 62  1  0
 24 63  1  0
 26 64  1  0
 27 65  1  0
 29 66  1  0
 30 67  1  0
 31 68  1  0
 34 69  1  0
 35 70  1  1
 36 71  1  0
 36 72  1  0
 36 73  1  0
 37 74  1  0
 38 75  1  0
 39 76  1  0
 39 77  1  0
 39 78  1  0
 40 79  1  0
 40 80  1  0
 40 81  1  0
M  END
$$$$
VVCTY.sdf
     RDKit          3D

 81 81  0  0  0  0  0  0  0  0999 V2000
   10.0190   -1.0749    0.6727 C   0  0  0  0  0  0  0  0  0  0  0  0
    9.0239    0.0482    0.9882 C   0  0  0  0  0  0  0  0  0  0  0  0
    9.6640    1.4008    0.6503 C   0  0  0  0  0  0  0  0  0  0  0  0
    7.6671   -0.2014    0.2862 C   0  0  2  0  0  0  0  0  0  0  0  0
    7.7426   -0.0343   -1.1834 N   0  0  0  0  0  0  0  0  0  0  0  0
    6.5216    0.6764    0.8532 C   0  0  0  0  0  0  0  0  0  0  0  0
    6.6693    1.5267    1.7244 O   0  0  0  0  0  0  0  0  0  0  0  0
    5.2985    0.4091    0.2684 N   0  0  0  0  0  0  0  0  0  0  0  0
    4.0611    1.0281    0.7387 C   0  0  2  0  0  0  0  0  0  0  0  0
    3.0014   -0.0916    0.8369 C   0  0  0  0  0  0  0  0  0  0  0  0
    3.1612   -1.1882    0.2985 O   0  0  0  0  0  0  0  0  0  0  0  0
    1.8681    0.2360    1.5490 N   0  0  0  0  0  0  0  0  0  0  0  0
    0.6975   -0.6408    1.5062 C   0  0  1  0  0  0  0  0  0  0  0  0
   -0.1821   -0.5147    2.7558 C   0  0  0  0  0  0  0  0  0  0  0  0
    0.6668   -1.0900    4.2626 S   0  0  0  0  0  0  0  0  0  0  0  0
   -0.1475   -0.2117    0.2921 C   0  0  0  0  0  0  0  0  0  0  0  0
   -0.1524    0.9459   -0.1252 O   0  0  0  0  0  0  0  0  0  0  0  0
   -0.9278   -1.2128   -0.2486 N   0  0  0  0  0  0  0  0  0  0  0  0
   -2.0221   -0.8871   -1.1667 C   0  0  2  0  0  0  0  0  0  0  0  0
   -3.3280   -0.8355   -0.3419 C   0  0  0  0  0  0  0  0  0  0  0  0
   -3.3695   -1.1522    0.8471 O   0  0  0  0  0  0  0  0  0  0  0  0
   -4.4325   -0.4117   -1.0480 N   0  0  0  0  0  0  0  0  0  0  0  0
   -5.7781   -0.4851   -0.4679 C   0  0  1  0  0  0  0  0  0  0  0  0
   -6.6899    0.5589   -1.1236 C   0  0  0  0  0  0  0  0  0  0  0  0
   -8.0463    0.6805   -0.4714 C   0  0  0  0  0  0  0  0  0  0  0  0
   -8.1808    1.2995    0.7802 C   0  0  0  0  0  0  0  0  0  0  0  0
   -9.4328    1.3999    1.3912 C   0  0  0  0  0  0  0  0  0  0  0  0
  -10.5514    0.8809    0.7484 C   0  0  0  0  0  0  0  0  0  0  0  0
  -11.7921    0.9561    1.3086 O   0  0  0  0  0  0  0  0  0  0  0  0
  -10.4377    0.2663   -0.4922 C   0  0  0  0  0  0  0  0  0  0  0  0
   -9.1872    0.1653   -1.1031 C   0  0  0  0  0  0  0  0  0  0  0  0
   -6.3216   -1.8896   -0.7275 C   0  0  0  0  0  0  0  0  0  0  0  0
   -6.1718   -2.5424   -1.7511 O   0  0  0  0  0  0  0  0  0  0  0  0
   -7.0321   -2.3881    0.3029 O   0  0  0  0  0  0  0  0  0  0  0  0
   -2.1188   -1.8860   -2.3383 C   0  0  1  0  0  0  0  0  0  0  0  0
   -2.4684   -3.3110   -1.9199 C   0  0  0  0  0  0  0  0  0  0  0  0
   -3.0932   -1.4239   -3.2850 O   0  0  0  0  0  0  0  0  0  0  0  0
    3.5897    2.1813   -0.1775 C   0  0  0  0  0  0  0  0  0  0  0  0
    4.5435    3.3774   -0.1098 C   0  0  0  0  0  0  0  0  0  0  0  0
    3.4039    1.7475   -1.6359 C   0  0  0  0  0  0  0  0  0  0  0  0
   10.2702   -1.1053   -0.3927 H   0  0  0  0  0  0  0  0  0  0  0  0
   10.9498   -0.9350    1.2329 H   0  0  0  0  0  0  0  0  0  0  0  0
    9.6071   -2.0500    0.9535 H   0  0  0  0  0  0  0  0  0  0  0  0
    8.8500    0.0332    2.0726 H   0  0  0  0  0  0  0  0  0  0  0  0
   10.5528    1.5645    1.2700 H   0  0  0  0  0  0  0  0  0  0  0  0
    9.9834    1.4501   -0.3959 H   0  0  0  0  0  0  0  0  0  0  0  0
    8.9786    2.2325    0.8358 H   0  0  0  0  0  0  0  0  0  0  0  0
    7.3689   -1.2394    0.4857 H   0  0  0  0  0  0  0  0  0  0  0  0
    7.9958    0.9341   -1.3846 H   0  0  0  0  0  0  0  0  0  0  0  0
    6.8099   -0.1472   -1.5791 H   0  0  0  0  0  0  0  0  0  0  0  0
    5.1832   -0.4878   -0.1969 H   0  0  0  0  0  0  0  0  0  0  0  0
    4.2182    1.4059    1.7568 H   0  0  0  0  0  0  0  0  0  0  0  0
    1.6754    1.2220    1.6825 H   0  0  0  0  0  0  0  0  0  0  0  0
    1.0199   -1.6790    1.3602 H   0  0  0  0  0  0  0  0  0  0  0  0
   -1.0981   -1.1044    2.6461 H   0  0  0  0  0  0  0  0  0  0  0  0
   -0.4832    0.5270    2.9149 H   0  0  0  0  0  0  0  0  0  0  0  0
   -0.3410   -0.8376    5.1112 H   0  0  0  0  0  0  0  0  0  0  0  0
   -1.0863   -2.0272    0.3351 H   0  0  0  0  0  0  0  0  0  0  0  0
   -1.8736    0.1215   -1.5724 H   0  0  0  0  0  0  0  0  0  0  0  0
   -4.3621   -0.5413   -2.0606 H   0  0  0  0  0  0  0  0  0  0  0  0
   -5.6966   -0.3281    0.6137 H   0  0  0  0  0  0  0  0  0  0  0  0
   -6.8138    0.3343   -2.1919 H   0  0  0  0  0  0  0  0  0  0  0  0
   -6.2071    1.5452   -1.0905 H   0  0  0  0  0  0  0  0  0  0  0  0
   -7.3098    1.7083    1.2886 H   0  0  0  0  0  0  0  0  0  0  0  0
   -9.5132    1.8819    2.3603 H   0  0  0  0  0  0  0  0  0  0  0  0
  -11.7175    1.4094    2.1642 H   0  0  0  0  0  0  0  0  0  0  0  0
  -11.3209   -0.1329   -0.9828 H   0  0  0  0  0  0  0  0  0  0  0  0
   -9.1137   -0.3191   -2.0744 H   0  0  0  0  0  0  0  0  0  0  0  0
   -7.3316   -3.2700    0.0006 H   0  0  0  0  0  0  0  0  0  0  0  0
   -1.1540   -1.9025   -2.8598 H   0  0  0  0  0  0  0  0  0  0  0  0
   -2.4993   -3.9655   -2.7981 H   0  0  0  0  0  0  0  0  0  0  0  0
   -1.7354   -3.7182   -1.2177 H   0  0  0  0  0  0  0  0  0  0  0  0
   -3.4615   -3.3642   -1.4633 H   0  0  0  0  0  0  0  0  0  0  0  0
   -3.0946   -2.0548   -4.0295 H   0  0  0  0  0  0  0  0  0  0  0  0
    2.6137    2.5327    0.1802 H   0  0  0  0  0  0  0  0  0  0  0  0
    4.6812    3.7079    0.9250 H   0  0  0  0  0  0  0  0  0  0  0  0
    4.1404    4.2232   -0.6772 H   0  0  0  0  0  0  0  0  0  0  0  0
    5.5266    3.1368   -0.5275 H   0  0  0  0  0  0  0  0  0  0  0  0
    2.6825    0.9285   -1.7182 H   0  0  0  0  0  0  0  0  0  0  0  0
    4.3472    1.4188   -2.0843 H   0  0  0  0  0  0  0  0  0  0  0  0
    3.0232    2.5801   -2.2376 H   0  0  0  0  0  0  0  0  0  0  0  0
  1  2  1  0
  2  3  1  0
  2  4  1  0
  4  5  1  0
  4  6  1  0
  6  7  2  0
  6  8  1  0
  8  9  1  0
  9 10  1  0
 10 11  2  0
 10 12  1  0
 12 13  1  0
 13 14  1  0
 14 15  1  0
 13 16  1  0
 16 17  2  0
 16 18  1  0
 18 19  1  0
 19 20  1  0
 20 21  2  0
 20 22  1  0
 22 23  1  0
 23 24  1  0
 24 25  1  0
 25 26  2  0
 26 27  1  0
 27 28  2  0
 28 29  1  0
 28 30  1  0
 30 31  2  0
 23 32  1  0
 32 33  2  0
 32 34  1  0
 19 35  1  0
 35 36  1  0
 35 37  1  0
  9 38  1  0
 38 39  1  0
 38 40  1  0
 31 25  1  0
  1 41  1  0
  1 42  1  0
  1 43  1  0
  2 44  1  0
  3 45  1  0
  3 46  1  0
  3 47  1  0
  4 48  1  6
  5 49  1  0
  5 50  1  0
  8 51  1  0
  9 52  1  1
 12 53  1  0
 13 54  1  6
 14 55  1  0
 14 56  1  0
 15 57  1  0
 18 58  1  0
 19 59  1  6
 22 60  1  0
 23 61  1  1
 24 62  1  0
 24 63  1  0
 26 64  1  0
 27 65  1  0
 29 66  1  0
 30 67  1  0
 31 68  1  0
 34 69  1  0
 35 70  1  6
 36 71  1  0
 36 72  1  0
 36 73  1  0
 37 74  1  0
 38 75  1  0
 39 76  1  0
 39 77  1  0
 39 78  1  0
 40 79  1  0
 40 80  1  0
 40 81  1  0
M  END
$$$$
VVCTY.sdf
     RDKit          3D

 81 81  0  0  0  0  0  0  0  0999 V2000
    7.8312    2.3524    0.5293 C   0  0  0  0  0  0  0  0  0  0  0  0
    7.4602    1.1851   -0.3945 C   0  0  0  0  0  0  0  0  0  0  0  0
    8.7077    0.7578   -1.1791 C   0  0  0  0  0  0  0  0  0  0  0  0
    6.8621    0.0074    0.4118 C   0  0  2  0  0  0  0  0  0  0  0  0
    6.5185   -1.1365   -0.4627 N   0  0  0  0  0  0  0  0  0  0  0  0
    5.5968    0.3909    1.2173 C   0  0  0  0  0  0  0  0  0  0  0  0
    5.4614    0.0987    2.4026 O   0  0  0  0  0  0  0  0  0  0  0  0
    4.6133    1.0176    0.4782 N   0  0  0  0  0  0  0  0  0  0  0  0
    3.2472    1.1208    0.9953 C   0  0  2  0  0  0  0  0  0  0  0  0
    2.5525   -0.1594    0.4696 C   0  0  0  0  0  0  0  0  0  0  0  0
    2.8717   -0.6799   -0.6020 O   0  0  0  0  0  0  0  0  0  0  0  0
    1.5737   -0.6779    1.2832 N   0  0  0  0  0  0  0  0  0  0  0  0
    0.7640   -1.8220    0.8618 C   0  0  1  0  0  0  0  0  0  0  0  0
    0.3095   -2.6569    2.0692 C   0  0  0  0  0  0  0  0  0  0  0  0
   -0.6937   -1.7269    3.2820 S   0  0  0  0  0  0  0  0  0  0  0  0
   -0.4353   -1.3481    0.0153 C   0  0  0  0  0  0  0  0  0  0  0  0
   -0.7950   -0.1729   -0.0475 O   0  0  0  0  0  0  0  0  0  0  0  0
   -1.1098   -2.3487   -0.6483 N   0  0  0  0  0  0  0  0  0  0  0  0
   -2.4304   -2.0882   -1.2129 C   0  0  2  0  0  0  0  0  0  0  0  0
   -3.4572   -2.0798   -0.0589 C   0  0  0  0  0  0  0  0  0  0  0  0
   -3.2411   -2.5880    1.0415 O   0  0  0  0  0  0  0  0  0  0  0  0
   -4.6624   -1.4731   -0.3706 N   0  0  0  0  0  0  0  0  0  0  0  0
   -5.6709   -1.3173    0.6853 C   0  0  1  0  0  0  0  0  0  0  0  0
   -6.8253   -0.3983    0.2561 C   0  0  0  0  0  0  0  0  0  0  0  0
   -6.3859    0.9994   -0.1199 C   0  0  0  0  0  0  0  0  0  0  0  0
   -6.6032    1.4844   -1.4189 C   0  0  0  0  0  0  0  0  0  0  0  0
   -6.1937    2.7717   -1.7750 C   0  0  0  0  0  0  0  0  0  0  0  0
   -5.5692    3.5769   -0.8292 C   0  0  0  0  0  0  0  0  0  0  0  0
   -5.1540    4.8393   -1.1320 O   0  0  0  0  0  0  0  0  0  0  0  0
   -5.3522    3.1171    0.4633 C   0  0  0  0  0  0  0  0  0  0  0  0
   -5.7632    1.8322    0.8206 C   0  0  0  0  0  0  0  0  0  0  0  0
   -6.2794   -2.6811    1.0216 C   0  0  0  0  0  0  0  0  0  0  0  0
   -6.4579   -3.6154    0.2541 O   0  0  0  0  0  0  0  0  0  0  0  0
   -6.6938   -2.7643    2.3037 O   0  0  0  0  0  0  0  0  0  0  0  0
   -2.8179   -3.1707   -2.2404 C   0  0  1  0  0  0  0  0  0  0  0  0
   -2.1230   -2.9443   -3.5783 C   0  0  0  0  0  0  0  0  0  0  0  0
   -2.4277   -4.4635   -1.7517 O   0  0  0  0  0  0  0  0  0  0  0  0
    2.5576    2.4064    0.4878 C   0  0  0  0  0  0  0  0  0  0  0  0
    1.1970    2.6273    1.1548 C   0  0  0  0  0  0  0  0  0  0  0  0
    3.4279    3.6463    0.7388 C   0  0  0  0  0  0  0  0  0  0  0  0
    6.9521    2.7518    1.0442 H   0  0  0  0  0  0  0  0  0  0  0  0
    8.2733    3.1748   -0.0436 H   0  0  0  0  0  0  0  0  0  0  0  0
    8.5575    2.0415    1.2881 H   0  0  0  0  0  0  0  0  0  0  0  0
    6.7250    1.5554   -1.1202 H   0  0  0  0  0  0  0  0  0  0  0  0
    8.4680   -0.0041   -1.9275 H   0  0  0  0  0  0  0  0  0  0  0  0
    9.4757    0.3517   -0.5119 H   0  0  0  0  0  0  0  0  0  0  0  0
    9.1414    1.6107   -1.7125 H   0  0  0  0  0  0  0  0  0  0  0  0
    7.6104   -0.3386    1.1363 H   0  0  0  0  0  0  0  0  0  0  0  0
    5.6997   -0.9141   -1.0300 H   0  0  0  0  0  0  0  0  0  0  0  0
    6.2164   -1.9094    0.1347 H   0  0  0  0  0  0  0  0  0  0  0  0
    4.6721    0.8956   -0.5263 H   0  0  0  0  0  0  0  0  0  0  0  0
    3.2688    1.0980    2.0910 H   0  0  0  0  0  0  0  0  0  0  0  0
    1.1609   -0.0773    1.9885 H   0  0  0  0  0  0  0  0  0  0  0  0
    1.3820   -2.4569    0.2144 H   0  0  0  0  0  0  0  0  0  0  0  0
   -0.2711   -3.5291    1.7533 H   0  0  0  0  0  0  0  0  0  0  0  0
    1.1917   -3.0256    2.6040 H   0  0  0  0  0  0  0  0  0  0  0  0
   -1.8458   -1.7743    2.5845 H   0  0  0  0  0  0  0  0  0  0  0  0
   -0.9637   -3.3185   -0.3872 H   0  0  0  0  0  0  0  0  0  0  0  0
   -2.4390   -1.0923   -1.6727 H   0  0  0  0  0  0  0  0  0  0  0  0
   -4.6093   -0.7259   -1.0531 H   0  0  0  0  0  0  0  0  0  0  0  0
   -5.1586   -0.9326    1.5755 H   0  0  0  0  0  0  0  0  0  0  0  0
   -7.5652   -0.3184    1.0635 H   0  0  0  0  0  0  0  0  0  0  0  0
   -7.3587   -0.8531   -0.5899 H   0  0  0  0  0  0  0  0  0  0  0  0
   -7.0984    0.8653   -2.1643 H   0  0  0  0  0  0  0  0  0  0  0  0
   -6.3731    3.1272   -2.7847 H   0  0  0  0  0  0  0  0  0  0  0  0
   -5.3760    5.0278   -2.0582 H   0  0  0  0  0  0  0  0  0  0  0  0
   -4.8660    3.7587    1.1932 H   0  0  0  0  0  0  0  0  0  0  0  0
   -5.5923    1.4932    1.8403 H   0  0  0  0  0  0  0  0  0  0  0  0
   -7.0069   -3.6894    2.3916 H   0  0  0  0  0  0  0  0  0  0  0  0
   -3.9024   -3.1856   -2.3972 H   0  0  0  0  0  0  0  0  0  0  0  0
   -2.3902   -1.9730   -4.0053 H   0  0  0  0  0  0  0  0  0  0  0  0
   -2.4052   -3.7264   -4.2915 H   0  0  0  0  0  0  0  0  0  0  0  0
   -1.0338   -2.9961   -3.4730 H   0  0  0  0  0  0  0  0  0  0  0  0
   -2.8212   -5.1284   -2.3450 H   0  0  0  0  0  0  0  0  0  0  0  0
    2.3940    2.3262   -0.5951 H   0  0  0  0  0  0  0  0  0  0  0  0
    0.4889    1.8415    0.8867 H   0  0  0  0  0  0  0  0  0  0  0  0
    0.7548    3.5769    0.8339 H   0  0  0  0  0  0  0  0  0  0  0  0
    1.2877    2.6497    2.2461 H   0  0  0  0  0  0  0  0  0  0  0  0
    4.3668    3.5969    0.1780 H   0  0  0  0  0  0  0  0  0  0  0  0
    3.6695    3.7510    1.8021 H   0  0  0  0  0  0  0  0  0  0  0  0
    2.9103    4.5570    0.4180 H   0  0  0  0  0  0  0  0  0  0  0  0
  1  2  1  0
  2  3  1  0
  2  4  1  0
  4  5  1  0
  4  6  1  0
  6  7  2  0
  6  8  1  0
  8  9  1  0
  9 10  1  0
 10 11  2  0
 10 12  1  0
 12 13  1  0
 13 14  1  0
 14 15  1  0
 13 16  1  0
 16 17  2  0
 16 18  1  0
 18 19  1  0
 19 20  1  0
 20 21  2  0
 20 22  1  0
 22 23  1  0
 23 24  1  0
 24 25  1  0
 25 26  2  0
 26 27  1  0
 27 28  2  0
 28 29  1  0
 28 30  1  0
 30 31  2  0
 23 32  1  0
 32 33  2  0
 32 34  1  0
 19 35  1  0
 35 36  1  0
 35 37  1  0
  9 38  1  0
 38 39  1  0
 38 40  1  0
 31 25  1  0
  1 41  1  0
  1 42  1  0
  1 43  1  0
  2 44  1  0
  3 45  1  0
  3 46  1  0
  3 47  1  0
  4 48  1  1
  5 49  1  0
  5 50  1  0
  8 51  1  0
  9 52  1  1
 12 53  1  0
 13 54  1  6
 14 55  1  0
 14 56  1  0
 15 57  1  0
 18 58  1  0
 19 59  1  6
 22 60  1  0
 23 61  1  1
 24 62  1  0
 24 63  1  0
 26 64  1  0
 27 65  1  0
 29 66  1  0
 30 67  1  0
 31 68  1  0
 34 69  1  0
 35 70  1  6
 36 71  1  0
 36 72  1  0
 36 73  1  0
 37 74  1  0
 38 75  1  0
 39 76  1  0
 39 77  1  0
 39 78  1  0
 40 79  1  0
 40 80  1  0
 40 81  1  0
M  END
$$$$
VVCTY.sdf
     RDKit          3D

 81 81  0  0  0  0  0  0  0  0999 V2000
    6.6016    3.6157    1.1620 C   0  0  0  0  0  0  0  0  0  0  0  0
    7.8179    2.7664    0.7659 C   0  0  0  0  0  0  0  0  0  0  0  0
    9.0195    3.2147    1.6086 C   0  0  0  0  0  0  0  0  0  0  0  0
    7.5162    1.2585    0.9365 C   0  0  2  0  0  0  0  0  0  0  0  0
    8.7239    0.4327    0.7038 N   0  0  0  0  0  0  0  0  0  0  0  0
    6.4229    0.7555   -0.0438 C   0  0  0  0  0  0  0  0  0  0  0  0
    6.0633    1.3623   -1.0473 O   0  0  0  0  0  0  0  0  0  0  0  0
    5.9426   -0.5027    0.2897 N   0  0  0  0  0  0  0  0  0  0  0  0
    4.7665   -1.0322   -0.3953 C   0  0  2  0  0  0  0  0  0  0  0  0
    3.5142   -0.5610    0.3765 C   0  0  0  0  0  0  0  0  0  0  0  0
    3.5575   -0.1763    1.5451 O   0  0  0  0  0  0  0  0  0  0  0  0
    2.3367   -0.6415   -0.3248 N   0  0  0  0  0  0  0  0  0  0  0  0
    1.0504   -0.2714    0.2687 C   0  0  1  0  0  0  0  0  0  0  0  0
    0.8929    1.2530    0.3596 C   0  0  0  0  0  0  0  0  0  0  0  0
   -0.3162    1.7582    1.6298 S   0  0  0  0  0  0  0  0  0  0  0  0
   -0.0371   -0.8943   -0.6294 C   0  0  0  0  0  0  0  0  0  0  0  0
    0.2296   -1.4314   -1.7068 O   0  0  0  0  0  0  0  0  0  0  0  0
   -1.3170   -0.8350   -0.1501 N   0  0  0  0  0  0  0  0  0  0  0  0
   -2.4922   -1.3365   -0.8825 C   0  0  2  0  0  0  0  0  0  0  0  0
   -3.7164   -0.7914   -0.1281 C   0  0  0  0  0  0  0  0  0  0  0  0
   -3.7206   -0.6693    1.0957 O   0  0  0  0  0  0  0  0  0  0  0  0
   -4.7822   -0.4305   -0.9229 N   0  0  0  0  0  0  0  0  0  0  0  0
   -6.0671   -0.0210   -0.3327 C   0  0  1  0  0  0  0  0  0  0  0  0
   -6.7203    1.0648   -1.1963 C   0  0  0  0  0  0  0  0  0  0  0  0
   -7.9613    1.6661   -0.5820 C   0  0  0  0  0  0  0  0  0  0  0  0
   -9.2297    1.3522   -1.0906 C   0  0  0  0  0  0  0  0  0  0  0  0
  -10.3762    1.8984   -0.5122 C   0  0  0  0  0  0  0  0  0  0  0  0
  -10.2587    2.7572    0.5733 C   0  0  0  0  0  0  0  0  0  0  0  0
  -11.4052    3.2658    1.1077 O   0  0  0  0  0  0  0  0  0  0  0  0
   -9.0102    3.0826    1.0921 C   0  0  0  0  0  0  0  0  0  0  0  0
   -7.8622    2.5369    0.5133 C   0  0  0  0  0  0  0  0  0  0  0  0
   -6.9573   -1.2595   -0.2889 C   0  0  0  0  0  0  0  0  0  0  0  0
   -7.0321   -2.1110   -1.1642 O   0  0  0  0  0  0  0  0  0  0  0  0
   -7.7008   -1.3534    0.8286 O   0  0  0  0  0  0  0  0  0  0  0  0
   -2.4835   -2.8808   -0.9879 C   0  0  1  0  0  0  0  0  0  0  0  0
   -3.8490   -3.5224   -1.1998 C   0  0  0  0  0  0  0  0  0  0  0  0
   -1.6832   -3.2903   -2.1085 O   0  0  0  0  0  0  0  0  0  0  0  0
    4.7977   -2.5708   -0.5299 C   0  0  0  0  0  0  0  0  0  0  0  0
    4.9274   -3.2977    0.8126 C   0  0  0  0  0  0  0  0  0  0  0  0
    5.9242   -3.0109   -1.4699 C   0  0  0  0  0  0  0  0  0  0  0  0
    5.7282    3.3887    0.5438 H   0  0  0  0  0  0  0  0  0  0  0  0
    6.8180    4.6825    1.0386 H   0  0  0  0  0  0  0  0  0  0  0  0
    6.3264    3.4473    2.2089 H   0  0  0  0  0  0  0  0  0  0  0  0
    8.0472    2.9774   -0.2870 H   0  0  0  0  0  0  0  0  0  0  0  0
    9.1775    4.2949    1.5157 H   0  0  0  0  0  0  0  0  0  0  0  0
    8.8669    2.9861    2.6690 H   0  0  0  0  0  0  0  0  0  0  0  0
    9.9428    2.7257    1.2826 H   0  0  0  0  0  0  0  0  0  0  0  0
    7.1680    1.0736    1.9603 H   0  0  0  0  0  0  0  0  0  0  0  0
    8.4477   -0.5494    0.6717 H   0  0  0  0  0  0  0  0  0  0  0  0
    9.0761    0.6430   -0.2322 H   0  0  0  0  0  0  0  0  0  0  0  0
    6.0064   -0.7323    1.2761 H   0  0  0  0  0  0  0  0  0  0  0  0
    4.7110   -0.5889   -1.3977 H   0  0  0  0  0  0  0  0  0  0  0  0
    2.3246   -0.9729   -1.2869 H   0  0  0  0  0  0  0  0  0  0  0  0
    1.0067   -0.7449    1.2571 H   0  0  0  0  0  0  0  0  0  0  0  0
    0.5680    1.6662   -0.6016 H   0  0  0  0  0  0  0  0  0  0  0  0
    1.8407    1.7371    0.6162 H   0  0  0  0  0  0  0  0  0  0  0  0
    0.4454    1.4482    2.6922 H   0  0  0  0  0  0  0  0  0  0  0  0
   -1.5015   -0.3888    0.7494 H   0  0  0  0  0  0  0  0  0  0  0  0
   -2.4511   -0.8877   -1.8827 H   0  0  0  0  0  0  0  0  0  0  0  0
   -4.8283   -0.8241   -1.8578 H   0  0  0  0  0  0  0  0  0  0  0  0
   -5.8919    0.3302    0.6902 H   0  0  0  0  0  0  0  0  0  0  0  0
   -6.0020    1.8764   -1.3760 H   0  0  0  0  0  0  0  0  0  0  0  0
   -6.9582    0.6643   -2.1912 H   0  0  0  0  0  0  0  0  0  0  0  0
   -9.3383    0.6805   -1.9395 H   0  0  0  0  0  0  0  0  0  0  0  0
  -11.3584    1.6547   -0.9071 H   0  0  0  0  0  0  0  0  0  0  0  0
  -11.1692    3.8422    1.8529 H   0  0  0  0  0  0  0  0  0  0  0  0
   -8.9097    3.7528    1.9399 H   0  0  0  0  0  0  0  0  0  0  0  0
   -6.8886    2.7962    0.9250 H   0  0  0  0  0  0  0  0  0  0  0  0
   -8.2257   -2.1732    0.7200 H   0  0  0  0  0  0  0  0  0  0  0  0
   -2.0298   -3.3185   -0.0907 H   0  0  0  0  0  0  0  0  0  0  0  0
   -4.3297   -3.1359   -2.1047 H   0  0  0  0  0  0  0  0  0  0  0  0
   -3.7413   -4.6033   -1.3463 H   0  0  0  0  0  0  0  0  0  0  0  0
   -4.5106   -3.3654   -0.3435 H   0  0  0  0  0  0  0  0  0  0  0  0
   -0.8481   -2.7738   -2.0810 H   0  0  0  0  0  0  0  0  0  0  0  0
    3.8516   -2.8956   -0.9828 H   0  0  0  0  0  0  0  0  0  0  0  0
    4.8826   -4.3825    0.6653 H   0  0  0  0  0  0  0  0  0  0  0  0
    4.1137   -3.0269    1.4924 H   0  0  0  0  0  0  0  0  0  0  0  0
    5.8774   -3.0715    1.3075 H   0  0  0  0  0  0  0  0  0  0  0  0
    5.8942   -4.0942   -1.6286 H   0  0  0  0  0  0  0  0  0  0  0  0
    5.8248   -2.5290   -2.4483 H   0  0  0  0  0  0  0  0  0  0  0  0
    6.9098   -2.7587   -1.0646 H   0  0  0  0  0  0  0  0  0  0  0  0
  1  2  1  0
  2  3  1  0
  2  4  1  0
  4  5  1  0
  4  6  1  0
  6  7  2  0
  6  8  1  0
  8  9  1  0
  9 10  1  0
 10 11  2  0
 10 12  1  0
 12 13  1  0
 13 14  1  0
 14 15  1  0
 13 16  1  0
 16 17  2  0
 16 18  1  0
 18 19  1  0
 19 20  1  0
 20 21  2  0
 20 22  1  0
 22 23  1  0
 23 24  1  0
 24 25  1  0
 25 26  2  0
 26 27  1  0
 27 28  2  0
 28 29  1  0
 28 30  1  0
 30 31  2  0
 23 32  1  0
 32 33  2  0
 32 34  1  0
 19 35  1  0
 35 36  1  0
 35 37  1  0
  9 38  1  0
 38 39  1  0
 38 40  1  0
 31 25  1  0
  1 41  1  0
  1 42  1  0
  1 43  1  0
  2 44  1  0
  3 45  1  0
  3 46  1  0
  3 47  1  0
  4 48  1  1
  5 49  1  0
  5 50  1  0
  8 51  1  0
  9 52  1  6
 12 53  1  0
 13 54  1  1
 14 55  1  0
 14 56  1  0
 15 57  1  0
 18 58  1  0
 19 59  1  6
 22 60  1  0
 23 61  1  1
 24 62  1  0
 24 63  1  0
 26 64  1  0
 27 65  1  0
 29 66  1  0
 30 67  1  0
 31 68  1  0
 34 69  1  0
 35 70  1  1
 36 71  1  0
 36 72  1  0
 36 73  1  0
 37 74  1  0
 38 75  1  0
 39 76  1  0
 39 77  1  0
 39 78  1  0
 40 79  1  0
 40 80  1  0
 40 81  1  0
M  END
$$$$
VVCTY.sdf
     RDKit          3D

 81 81  0  0  0  0  0  0  0  0999 V2000
    9.5182    1.8600   -0.1781 C   0  0  0  0  0  0  0  0  0  0  0  0
    8.5663    2.4584    0.8656 C   0  0  0  0  0  0  0  0  0  0  0  0
    9.3808    2.9552    2.0660 C   0  0  0  0  0  0  0  0  0  0  0  0
    7.4414    1.4969    1.3203 C   0  0  2  0  0  0  0  0  0  0  0  0
    7.9604    0.1946    1.7945 N   0  0  0  0  0  0  0  0  0  0  0  0
    6.3657    1.2669    0.2285 C   0  0  0  0  0  0  0  0  0  0  0  0
    6.4249    1.7203   -0.9095 O   0  0  0  0  0  0  0  0  0  0  0  0
    5.3105    0.4906    0.6601 N   0  0  0  0  0  0  0  0  0  0  0  0
    4.1672    0.1739   -0.1953 C   0  0  2  0  0  0  0  0  0  0  0  0
    2.9613   -0.0313    0.7456 C   0  0  0  0  0  0  0  0  0  0  0  0
    3.1023   -0.3065    1.9378 O   0  0  0  0  0  0  0  0  0  0  0  0
    1.7283    0.1105    0.1661 N   0  0  0  0  0  0  0  0  0  0  0  0
    0.4772   -0.1396    0.8912 C   0  0  1  0  0  0  0  0  0  0  0  0
    0.1295    1.0302    1.8200 C   0  0  0  0  0  0  0  0  0  0  0  0
   -1.0957    0.5861    3.0951 S   0  0  0  0  0  0  0  0  0  0  0  0
   -0.5974   -0.3446   -0.1964 C   0  0  0  0  0  0  0  0  0  0  0  0
   -0.3716   -0.0965   -1.3826 O   0  0  0  0  0  0  0  0  0  0  0  0
   -1.8020   -0.8341    0.2347 N   0  0  0  0  0  0  0  0  0  0  0  0
   -2.9533   -0.9780   -0.6587 C   0  0  2  0  0  0  0  0  0  0  0  0
   -4.2208   -1.1241    0.2099 C   0  0  0  0  0  0  0  0  0  0  0  0
   -4.1731   -1.1765    1.4384 O   0  0  0  0  0  0  0  0  0  0  0  0
   -5.4004   -1.1591   -0.4983 N   0  0  0  0  0  0  0  0  0  0  0  0
   -6.6779   -1.4123    0.1693 C   0  0  1  0  0  0  0  0  0  0  0  0
   -7.8569   -0.8248   -0.6156 C   0  0  0  0  0  0  0  0  0  0  0  0
   -7.8533    0.6864   -0.6406 C   0  0  0  0  0  0  0  0  0  0  0  0
   -8.3162    1.4151    0.4653 C   0  0  0  0  0  0  0  0  0  0  0  0
   -8.2989    2.8117    0.4523 C   0  0  0  0  0  0  0  0  0  0  0  0
   -7.8159    3.4794   -0.6680 C   0  0  0  0  0  0  0  0  0  0  0  0
   -7.7797    4.8414   -0.7227 O   0  0  0  0  0  0  0  0  0  0  0  0
   -7.3511    2.7746   -1.7711 C   0  0  0  0  0  0  0  0  0  0  0  0
   -7.3678    1.3792   -1.7584 C   0  0  0  0  0  0  0  0  0  0  0  0
   -6.8825   -2.9209    0.2868 C   0  0  0  0  0  0  0  0  0  0  0  0
   -6.4058   -3.7829   -0.4369 O   0  0  0  0  0  0  0  0  0  0  0  0
   -7.7238   -3.2620    1.2853 O   0  0  0  0  0  0  0  0  0  0  0  0
   -2.8017   -2.1427   -1.6641 C   0  0  1  0  0  0  0  0  0  0  0  0
   -2.7123   -3.5145   -1.0019 C   0  0  0  0  0  0  0  0  0  0  0  0
   -3.9010   -2.1400   -2.5901 O   0  0  0  0  0  0  0  0  0  0  0  0
    4.4758   -1.0413   -1.1008 C   0  0  0  0  0  0  0  0  0  0  0  0
    3.4383   -1.2321   -2.2090 C   0  0  0  0  0  0  0  0  0  0  0  0
    4.6466   -2.3452   -0.3140 C   0  0  0  0  0  0  0  0  0  0  0  0
    8.9777    1.4689   -1.0445 H   0  0  0  0  0  0  0  0  0  0  0  0
   10.2105    2.6270   -0.5431 H   0  0  0  0  0  0  0  0  0  0  0  0
   10.1229    1.0486    0.2403 H   0  0  0  0  0  0  0  0  0  0  0  0
    8.0934    3.3375    0.4075 H   0  0  0  0  0  0  0  0  0  0  0  0
    8.7311    3.4359    2.8050 H   0  0  0  0  0  0  0  0  0  0  0  0
    9.9121    2.1358    2.5615 H   0  0  0  0  0  0  0  0  0  0  0  0
   10.1247    3.6942    1.7491 H   0  0  0  0  0  0  0  0  0  0  0  0
    6.9131    1.9679    2.1602 H   0  0  0  0  0  0  0  0  0  0  0  0
    8.4242   -0.2733    1.0146 H   0  0  0  0  0  0  0  0  0  0  0  0
    7.1809   -0.4127    2.0422 H   0  0  0  0  0  0  0  0  0  0  0  0
    5.2054    0.2874    1.6506 H   0  0  0  0  0  0  0  0  0  0  0  0
    3.9661    1.0574   -0.8143 H   0  0  0  0  0  0  0  0  0  0  0  0
    1.6388    0.3245   -0.8253 H   0  0  0  0  0  0  0  0  0  0  0  0
    0.6075   -1.0757    1.4477 H   0  0  0  0  0  0  0  0  0  0  0  0
   -0.2653    1.8770    1.2477 H   0  0  0  0  0  0  0  0  0  0  0  0
    1.0194    1.3859    2.3492 H   0  0  0  0  0  0  0  0  0  0  0  0
   -1.0876    1.7663    3.7334 H   0  0  0  0  0  0  0  0  0  0  0  0
   -2.0127   -0.8389    1.2346 H   0  0  0  0  0  0  0  0  0  0  0  0
   -3.0618   -0.0352   -1.2113 H   0  0  0  0  0  0  0  0  0  0  0  0
   -5.3065   -1.4706   -1.4674 H   0  0  0  0  0  0  0  0  0  0  0  0
   -6.6258   -0.9965    1.1827 H   0  0  0  0  0  0  0  0  0  0  0  0
   -8.8090   -1.1595   -0.1823 H   0  0  0  0  0  0  0  0  0  0  0  0
   -7.8572   -1.2087   -1.6450 H   0  0  0  0  0  0  0  0  0  0  0  0
   -8.6915    0.8984    1.3462 H   0  0  0  0  0  0  0  0  0  0  0  0
   -8.6612    3.3548    1.3191 H   0  0  0  0  0  0  0  0  0  0  0  0
   -8.1269    5.1925    0.1134 H   0  0  0  0  0  0  0  0  0  0  0  0
   -6.9741    3.3096   -2.6379 H   0  0  0  0  0  0  0  0  0  0  0  0
   -6.9948    0.8393   -2.6256 H   0  0  0  0  0  0  0  0  0  0  0  0
   -7.7410   -4.2422    1.2614 H   0  0  0  0  0  0  0  0  0  0  0  0
   -1.8957   -1.9886   -2.2606 H   0  0  0  0  0  0  0  0  0  0  0  0
   -3.6307   -3.7599   -0.4601 H   0  0  0  0  0  0  0  0  0  0  0  0
   -2.5859   -4.2937   -1.7616 H   0  0  0  0  0  0  0  0  0  0  0  0
   -1.8684   -3.5729   -0.3084 H   0  0  0  0  0  0  0  0  0  0  0  0
   -3.7204   -2.8433   -3.2420 H   0  0  0  0  0  0  0  0  0  0  0  0
    5.4334   -0.8448   -1.6023 H   0  0  0  0  0  0  0  0  0  0  0  0
    2.4815   -1.5900   -1.8173 H   0  0  0  0  0  0  0  0  0  0  0  0
    3.7893   -1.9744   -2.9345 H   0  0  0  0  0  0  0  0  0  0  0  0
    3.2652   -0.2966   -2.7507 H   0  0  0  0  0  0  0  0  0  0  0  0
    4.9493   -3.1587   -0.9824 H   0  0  0  0  0  0  0  0  0  0  0  0
    3.7146   -2.6480    0.1744 H   0  0  0  0  0  0  0  0  0  0  0  0
    5.4196   -2.2470    0.4548 H   0  0  0  0  0  0  0  0  0  0  0  0
  1  2  1  0
  2  3  1  0
  2  4  1  0
  4  5  1  0
  4  6  1  0
  6  7  2  0
  6  8  1  0
  8  9  1  0
  9 10  1  0
 10 11  2  0
 10 12  1  0
 12 13  1  0
 13 14  1  0
 14 15  1  0
 13 16  1  0
 16 17  2  0
 16 18  1  0
 18 19  1  0
 19 20  1  0
 20 21  2  0
 20 22  1  0
 22 23  1  0
 23 24  1  0
 24 25  1  0
 25 26  2  0
 26 27  1  0
 27 28  2  0
 28 29  1  0
 28 30  1  0
 30 31  2  0
 23 32  1  0
 32 33  2  0
 32 34  1  0
 19 35  1  0
 35 36  1  0
 35 37  1  0
  9 38  1  0
 38 39  1  0
 38 40  1  0
 31 25  1  0
  1 41  1  0
  1 42  1  0
  1 43  1  0
  2 44  1  0
  3 45  1  0
  3 46  1  0
  3 47  1  0
  4 48  1  1
  5 49  1  0
  5 50  1  0
  8 51  1  0
  9 52  1  6
 12 53  1  0
 13 54  1  1
 14 55  1  0
 14 56  1  0
 15 57  1  0
 18 58  1  0
 19 59  1  6
 22 60  1  0
 23 61  1  1
 24 62  1  0
 24 63  1  0
 26 64  1  0
 27 65  1  0
 29 66  1  0
 30 67  1  0
 31 68  1  0
 34 69  1  0
 35 70  1  6
 36 71  1  0
 36 72  1  0
 36 73  1  0
 37 74  1  0
 38 75  1  0
 39 76  1  0
 39 77  1  0
 39 78  1  0
 40 79  1  0
 40 80  1  0
 40 81  1  0
M  END
$$$$
VVCTY.sdf
     RDKit          3D

 81 81  0  0  0  0  0  0  0  0999 V2000
    8.3440    0.3888    2.6337 C   0  0  0  0  0  0  0  0  0  0  0  0
    7.1532    0.9984    1.8820 C   0  0  0  0  0  0  0  0  0  0  0  0
    5.8815    0.7736    2.7096 C   0  0  0  0  0  0  0  0  0  0  0  0
    7.0203    0.4181    0.4538 C   0  0  2  0  0  0  0  0  0  0  0  0
    8.2664    0.6123   -0.3215 N   0  0  0  0  0  0  0  0  0  0  0  0
    5.8677    1.1046   -0.3198 C   0  0  0  0  0  0  0  0  0  0  0  0
    6.0052    2.1916   -0.8780 O   0  0  0  0  0  0  0  0  0  0  0  0
    4.6973    0.3853   -0.3502 N   0  0  0  0  0  0  0  0  0  0  0  0
    3.4588    0.9307   -0.8992 C   0  0  2  0  0  0  0  0  0  0  0  0
    2.3509    0.6893    0.1490 C   0  0  0  0  0  0  0  0  0  0  0  0
    2.4887   -0.1092    1.0771 O   0  0  0  0  0  0  0  0  0  0  0  0
    1.1970    1.4167   -0.0429 N   0  0  0  0  0  0  0  0  0  0  0  0
   -0.0193    1.0671    0.6871 C   0  0  1  0  0  0  0  0  0  0  0  0
   -0.9594    2.2662    0.8704 C   0  0  0  0  0  0  0  0  0  0  0  0
   -1.3527    3.1459   -0.6832 S   0  0  0  0  0  0  0  0  0  0  0  0
   -0.7317   -0.0851   -0.0519 C   0  0  0  0  0  0  0  0  0  0  0  0
   -0.5194   -0.3565   -1.2331 O   0  0  0  0  0  0  0  0  0  0  0  0
   -1.6377   -0.7815    0.7119 N   0  0  0  0  0  0  0  0  0  0  0  0
   -2.5800   -1.7352    0.1183 C   0  0  2  0  0  0  0  0  0  0  0  0
   -3.9367   -1.4664    0.7954 C   0  0  0  0  0  0  0  0  0  0  0  0
   -4.0256   -0.7589    1.8008 O   0  0  0  0  0  0  0  0  0  0  0  0
   -5.0262   -2.0397    0.1847 N   0  0  0  0  0  0  0  0  0  0  0  0
   -6.3947   -1.8010    0.6547 C   0  0  1  0  0  0  0  0  0  0  0  0
   -7.1499   -0.8131   -0.2474 C   0  0  0  0  0  0  0  0  0  0  0  0
   -6.4928    0.5430   -0.3675 C   0  0  0  0  0  0  0  0  0  0  0  0
   -5.8746    0.9287   -1.5667 C   0  0  0  0  0  0  0  0  0  0  0  0
   -5.2510    2.1735   -1.6764 C   0  0  0  0  0  0  0  0  0  0  0  0
   -5.2468    3.0352   -0.5851 C   0  0  0  0  0  0  0  0  0  0  0  0
   -4.6449    4.2577   -0.6508 O   0  0  0  0  0  0  0  0  0  0  0  0
   -5.8514    2.6709    0.6108 C   0  0  0  0  0  0  0  0  0  0  0  0
   -6.4762    1.4273    0.7202 C   0  0  0  0  0  0  0  0  0  0  0  0
   -7.1256   -3.1373    0.6308 C   0  0  0  0  0  0  0  0  0  0  0  0
   -6.8362   -4.0995   -0.0663 O   0  0  0  0  0  0  0  0  0  0  0  0
   -8.1960   -3.1766    1.4474 O   0  0  0  0  0  0  0  0  0  0  0  0
   -2.1349   -3.1973    0.3079 C   0  0  1  0  0  0  0  0  0  0  0  0
   -0.9922   -3.5846   -0.6248 C   0  0  0  0  0  0  0  0  0  0  0  0
   -1.7082   -3.4298    1.6546 O   0  0  0  0  0  0  0  0  0  0  0  0
    3.0936    0.3137   -2.2686 C   0  0  0  0  0  0  0  0  0  0  0  0
    2.9889   -1.2149   -2.2279 C   0  0  0  0  0  0  0  0  0  0  0  0
    4.0888    0.7376   -3.3525 C   0  0  0  0  0  0  0  0  0  0  0  0
    8.4050    0.7861    3.6528 H   0  0  0  0  0  0  0  0  0  0  0  0
    8.2528   -0.7007    2.7012 H   0  0  0  0  0  0  0  0  0  0  0  0
    9.2927    0.6222    2.1401 H   0  0  0  0  0  0  0  0  0  0  0  0
    7.3146    2.0830    1.8163 H   0  0  0  0  0  0  0  0  0  0  0  0
    5.0307    1.3189    2.2898 H   0  0  0  0  0  0  0  0  0  0  0  0
    6.0160    1.1330    3.7357 H   0  0  0  0  0  0  0  0  0  0  0  0
    5.6204   -0.2890    2.7557 H   0  0  0  0  0  0  0  0  0  0  0  0
    6.8275   -0.6603    0.5044 H   0  0  0  0  0  0  0  0  0  0  0  0
    8.1140    0.2573   -1.2667 H   0  0  0  0  0  0  0  0  0  0  0  0
    8.3820    1.6220   -0.4536 H   0  0  0  0  0  0  0  0  0  0  0  0
    4.5839   -0.3940    0.2921 H   0  0  0  0  0  0  0  0  0  0  0  0
    3.5647    2.0179   -1.0030 H   0  0  0  0  0  0  0  0  0  0  0  0
    1.0393    1.8121   -0.9645 H   0  0  0  0  0  0  0  0  0  0  0  0
    0.2645    0.6922    1.6785 H   0  0  0  0  0  0  0  0  0  0  0  0
   -0.4945    2.9979    1.5397 H   0  0  0  0  0  0  0  0  0  0  0  0
   -1.9046    1.9548    1.3269 H   0  0  0  0  0  0  0  0  0  0  0  0
   -2.3666    3.8718   -0.1799 H   0  0  0  0  0  0  0  0  0  0  0  0
   -1.9244   -0.4171    1.6183 H   0  0  0  0  0  0  0  0  0  0  0  0
   -2.7042   -1.5077   -0.9477 H   0  0  0  0  0  0  0  0  0  0  0  0
   -4.9082   -2.6875   -0.5869 H   0  0  0  0  0  0  0  0  0  0  0  0
   -6.3568   -1.4470    1.6910 H   0  0  0  0  0  0  0  0  0  0  0  0
   -7.2699   -1.2469   -1.2499 H   0  0  0  0  0  0  0  0  0  0  0  0
   -8.1720   -0.6694    0.1278 H   0  0  0  0  0  0  0  0  0  0  0  0
   -5.8698    0.2605   -2.4248 H   0  0  0  0  0  0  0  0  0  0  0  0
   -4.7726    2.4472   -2.6117 H   0  0  0  0  0  0  0  0  0  0  0  0
   -4.3468    4.4005   -1.5654 H   0  0  0  0  0  0  0  0  0  0  0  0
   -5.8374    3.3507    1.4577 H   0  0  0  0  0  0  0  0  0  0  0  0
   -6.9389    1.1515    1.6652 H   0  0  0  0  0  0  0  0  0  0  0  0
   -8.5537   -4.0844    1.3459 H   0  0  0  0  0  0  0  0  0  0  0  0
   -2.9740   -3.8757    0.1199 H   0  0  0  0  0  0  0  0  0  0  0  0
   -1.2616   -3.4247   -1.6731 H   0  0  0  0  0  0  0  0  0  0  0  0
   -0.0818   -3.0185   -0.4013 H   0  0  0  0  0  0  0  0  0  0  0  0
   -0.7374   -4.6415   -0.4895 H   0  0  0  0  0  0  0  0  0  0  0  0
   -0.9711   -2.8139    1.8242 H   0  0  0  0  0  0  0  0  0  0  0  0
    2.1102    0.6960   -2.5707 H   0  0  0  0  0  0  0  0  0  0  0  0
    3.9484   -1.6804   -1.9797 H   0  0  0  0  0  0  0  0  0  0  0  0
    2.6747   -1.6031   -3.2030 H   0  0  0  0  0  0  0  0  0  0  0  0
    2.2492   -1.5441   -1.4916 H   0  0  0  0  0  0  0  0  0  0  0  0
    3.7646    0.3775   -4.3349 H   0  0  0  0  0  0  0  0  0  0  0  0
    5.0892    0.3344   -3.1644 H   0  0  0  0  0  0  0  0  0  0  0  0
    4.1637    1.8287   -3.4071 H   0  0  0  0  0  0  0  0  0  0  0  0
  1  2  1  0
  2  3  1  0
  2  4  1  0
  4  5  1  0
  4  6  1  0
  6  7  2  0
  6  8  1  0
  8  9  1  0
  9 10  1  0
 10 11  2  0
 10 12  1  0
 12 13  1  0
 13 14  1  0
 14 15  1  0
 13 16  1  0
 16 17  2  0
 16 18  1  0
 18 19  1  0
 19 20  1  0
 20 21  2  0
 20 22  1  0
 22 23  1  0
 23 24  1  0
 24 25  1  0
 25 26  2  0
 26 27  1  0
 27 28  2  0
 28 29  1  0
 28 30  1  0
 30 31  2  0
 23 32  1  0
 32 33  2  0
 32 34  1  0
 19 35  1  0
 35 36  1  0
 35 37  1  0
  9 38  1  0
 38 39  1  0
 38 40  1  0
 31 25  1  0
  1 41  1  0
  1 42  1  0
  1 43  1  0
  2 44  1  0
  3 45  1  0
  3 46  1  0
  3 47  1  0
  4 48  1  1
  5 49  1  0
  5 50  1  0
  8 51  1  0
  9 52  1  6
 12 53  1  0
 13 54  1  1
 14 55  1  0
 14 56  1  0
 15 57  1  0
 18 58  1  0
 19 59  1  6
 22 60  1  0
 23 61  1  1
 24 62  1  0
 24 63  1  0
 26 64  1  0
 27 65  1  0
 29 66  1  0
 30 67  1  0
 31 68  1  0
 34 69  1  0
 35 70  1  6
 36 71  1  0
 36 72  1  0
 36 73  1  0
 37 74  1  0
 38 75  1  0
 39 76  1  0
 39 77  1  0
 39 78  1  0
 40 79  1  0
 40 80  1  0
 40 81  1  0
M  END
$$$$
VVCTY.sdf
     RDKit          3D

 81 81  0  0  0  0  0  0  0  0999 V2000
    4.8802    2.4303    2.6503 C   0  0  0  0  0  0  0  0  0  0  0  0
    6.0850    2.2240    1.7204 C   0  0  0  0  0  0  0  0  0  0  0  0
    7.3648    2.5412    2.5056 C   0  0  0  0  0  0  0  0  0  0  0  0
    6.0973    0.7889    1.1416 C   0  0  2  0  0  0  0  0  0  0  0  0
    7.3272    0.5263    0.3646 N   0  0  0  0  0  0  0  0  0  0  0  0
    4.8938    0.5174    0.2030 C   0  0  0  0  0  0  0  0  0  0  0  0
    4.1681    1.3856   -0.2733 O   0  0  0  0  0  0  0  0  0  0  0  0
    4.7094   -0.8227   -0.0779 N   0  0  0  0  0  0  0  0  0  0  0  0
    3.6412   -1.3031   -0.9681 C   0  0  2  0  0  0  0  0  0  0  0  0
    2.2738   -1.3596   -0.2228 C   0  0  0  0  0  0  0  0  0  0  0  0
    1.4693   -2.2838   -0.3261 O   0  0  0  0  0  0  0  0  0  0  0  0
    1.9617   -0.2023    0.4682 N   0  0  0  0  0  0  0  0  0  0  0  0
    0.6667   -0.0013    1.1320 C   0  0  1  0  0  0  0  0  0  0  0  0
    0.7918    1.0578    2.2324 C   0  0  0  0  0  0  0  0  0  0  0  0
   -0.6075    1.0219    3.4020 S   0  0  0  0  0  0  0  0  0  0  0  0
   -0.3539    0.4093    0.0493 C   0  0  0  0  0  0  0  0  0  0  0  0
   -0.7917    1.5459   -0.1030 O   0  0  0  0  0  0  0  0  0  0  0  0
   -0.7173   -0.6252   -0.7767 N   0  0  0  0  0  0  0  0  0  0  0  0
   -1.6535   -0.5065   -1.8964 C   0  0  2  0  0  0  0  0  0  0  0  0
   -3.1021   -0.6217   -1.3710 C   0  0  0  0  0  0  0  0  0  0  0  0
   -3.8822   -1.5146   -1.6849 O   0  0  0  0  0  0  0  0  0  0  0  0
   -3.4625    0.4158   -0.5271 N   0  0  0  0  0  0  0  0  0  0  0  0
   -4.6996    0.3911    0.2622 C   0  0  1  0  0  0  0  0  0  0  0  0
   -5.9636    0.1847   -0.5908 C   0  0  0  0  0  0  0  0  0  0  0  0
   -7.1386    1.0031   -0.0983 C   0  0  0  0  0  0  0  0  0  0  0  0
   -8.0944    0.4407    0.7589 C   0  0  0  0  0  0  0  0  0  0  0  0
   -9.1668    1.2044    1.2252 C   0  0  0  0  0  0  0  0  0  0  0  0
   -9.2824    2.5336    0.8328 C   0  0  0  0  0  0  0  0  0  0  0  0
  -10.3132    3.3146    1.2656 O   0  0  0  0  0  0  0  0  0  0  0  0
   -8.3449    3.1091   -0.0153 C   0  0  0  0  0  0  0  0  0  0  0  0
   -7.2727    2.3463   -0.4802 C   0  0  0  0  0  0  0  0  0  0  0  0
   -4.6160   -0.6269    1.4119 C   0  0  0  0  0  0  0  0  0  0  0  0
   -5.5350   -1.0041    2.1238 O   0  0  0  0  0  0  0  0  0  0  0  0
   -3.3623   -1.0647    1.6801 O   0  0  0  0  0  0  0  0  0  0  0  0
   -1.3309   -1.5623   -2.9783 C   0  0  1  0  0  0  0  0  0  0  0  0
   -0.2138   -1.0820   -3.9030 C   0  0  0  0  0  0  0  0  0  0  0  0
   -0.9125   -2.8055   -2.3924 O   0  0  0  0  0  0  0  0  0  0  0  0
    4.0777   -2.6193   -1.6551 C   0  0  0  0  0  0  0  0  0  0  0  0
    4.1662   -3.8217   -0.7101 C   0  0  0  0  0  0  0  0  0  0  0  0
    3.2018   -2.9558   -2.8652 C   0  0  0  0  0  0  0  0  0  0  0  0
    3.9316    2.2960    2.1230 H   0  0  0  0  0  0  0  0  0  0  0  0
    4.9027    1.7254    3.4886 H   0  0  0  0  0  0  0  0  0  0  0  0
    4.8796    3.4448    3.0637 H   0  0  0  0  0  0  0  0  0  0  0  0
    6.0042    2.9492    0.8998 H   0  0  0  0  0  0  0  0  0  0  0  0
    7.3091    3.5402    2.9519 H   0  0  0  0  0  0  0  0  0  0  0  0
    8.2468    2.5276    1.8575 H   0  0  0  0  0  0  0  0  0  0  0  0
    7.5227    1.8190    3.3139 H   0  0  0  0  0  0  0  0  0  0  0  0
    6.0532    0.0668    1.9664 H   0  0  0  0  0  0  0  0  0  0  0  0
    7.2321   -0.3531   -0.1430 H   0  0  0  0  0  0  0  0  0  0  0  0
    7.4195    1.2477   -0.3535 H   0  0  0  0  0  0  0  0  0  0  0  0
    5.1548   -1.4921    0.5382 H   0  0  0  0  0  0  0  0  0  0  0  0
    3.5156   -0.5414   -1.7501 H   0  0  0  0  0  0  0  0  0  0  0  0
    2.4680    0.6364    0.1734 H   0  0  0  0  0  0  0  0  0  0  0  0
    0.3594   -0.9632    1.5616 H   0  0  0  0  0  0  0  0  0  0  0  0
    0.8692    2.0662    1.8119 H   0  0  0  0  0  0  0  0  0  0  0  0
    1.7008    0.8838    2.8190 H   0  0  0  0  0  0  0  0  0  0  0  0
   -0.3551   -0.1907    3.9167 H   0  0  0  0  0  0  0  0  0  0  0  0
   -0.5067   -1.5702   -0.4606 H   0  0  0  0  0  0  0  0  0  0  0  0
   -1.5704    0.4996   -2.3282 H   0  0  0  0  0  0  0  0  0  0  0  0
   -2.7069    1.0037   -0.1785 H   0  0  0  0  0  0  0  0  0  0  0  0
   -4.7227    1.3767    0.7447 H   0  0  0  0  0  0  0  0  0  0  0  0
   -6.2488   -0.8746   -0.6265 H   0  0  0  0  0  0  0  0  0  0  0  0
   -5.7778    0.4783   -1.6328 H   0  0  0  0  0  0  0  0  0  0  0  0
   -8.0054   -0.5973    1.0750 H   0  0  0  0  0  0  0  0  0  0  0  0
   -9.8918    0.7463    1.8900 H   0  0  0  0  0  0  0  0  0  0  0  0
  -10.8801    2.7786    1.8438 H   0  0  0  0  0  0  0  0  0  0  0  0
   -8.4479    4.1482   -0.3137 H   0  0  0  0  0  0  0  0  0  0  0  0
   -6.5443    2.8064   -1.1441 H   0  0  0  0  0  0  0  0  0  0  0  0
   -3.5054   -1.6843    2.4257 H   0  0  0  0  0  0  0  0  0  0  0  0
   -2.2145   -1.7714   -3.5909 H   0  0  0  0  0  0  0  0  0  0  0  0
    0.0318   -1.8557   -4.6384 H   0  0  0  0  0  0  0  0  0  0  0  0
   -0.5050   -0.1725   -4.4372 H   0  0  0  0  0  0  0  0  0  0  0  0
    0.7048   -0.8781   -3.3419 H   0  0  0  0  0  0  0  0  0  0  0  0
   -0.0154   -2.6906   -2.0265 H   0  0  0  0  0  0  0  0  0  0  0  0
    5.0919   -2.4544   -2.0466 H   0  0  0  0  0  0  0  0  0  0  0  0
    4.8187   -3.6158    0.1433 H   0  0  0  0  0  0  0  0  0  0  0  0
    4.5843   -4.6870   -1.2368 H   0  0  0  0  0  0  0  0  0  0  0  0
    3.1867   -4.1189   -0.3253 H   0  0  0  0  0  0  0  0  0  0  0  0
    3.1461   -2.1078   -3.5555 H   0  0  0  0  0  0  0  0  0  0  0  0
    2.1838   -3.2273   -2.5743 H   0  0  0  0  0  0  0  0  0  0  0  0
    3.6222   -3.8035   -3.4174 H   0  0  0  0  0  0  0  0  0  0  0  0
  1  2  1  0
  2  3  1  0
  2  4  1  0
  4  5  1  0
  4  6  1  0
  6  7  2  0
  6  8  1  0
  8  9  1  0
  9 10  1  0
 10 11  2  0
 10 12  1  0
 12 13  1  0
 13 14  1  0
 14 15  1  0
 13 16  1  0
 16 17  2  0
 16 18  1  0
 18 19  1  0
 19 20  1  0
 20 21  2  0
 20 22  1  0
 22 23  1  0
 23 24  1  0
 24 25  1  0
 25 26  2  0
 26 27  1  0
 27 28  2  0
 28 29  1  0
 28 30  1  0
 30 31  2  0
 23 32  1  0
 32 33  2  0
 32 34  1  0
 19 35  1  0
 35 36  1  0
 35 37  1  0
  9 38  1  0
 38 39  1  0
 38 40  1  0
 31 25  1  0
  1 41  1  0
  1 42  1  0
  1 43  1  0
  2 44  1  0
  3 45  1  0
  3 46  1  0
  3 47  1  0
  4 48  1  1
  5 49  1  0
  5 50  1  0
  8 51  1  0
  9 52  1  6
 12 53  1  0
 13 54  1  1
 14 55  1  0
 14 56  1  0
 15 57  1  0
 18 58  1  0
 19 59  1  6
 22 60  1  0
 23 61  1  1
 24 62  1  0
 24 63  1  0
 26 64  1  0
 27 65  1  0
 29 66  1  0
 30 67  1  0
 31 68  1  0
 34 69  1  0
 35 70  1  6
 36 71  1  0
 36 72  1  0
 36 73  1  0
 37 74  1  0
 38 75  1  0
 39 76  1  0
 39 77  1  0
 39 78  1  0
 40 79  1  0
 40 80  1  0
 40 81  1  0
M  END
$$$$
VVCTY.sdf
     RDKit          3D

 81 81  0  0  0  0  0  0  0  0999 V2000
    3.6289    3.8946    0.7966 C   0  0  0  0  0  0  0  0  0  0  0  0
    3.5696    2.6712   -0.1238 C   0  0  0  0  0  0  0  0  0  0  0  0
    4.4974    2.8854   -1.3249 C   0  0  0  0  0  0  0  0  0  0  0  0
    3.8552    1.3638    0.6515 C   0  0  2  0  0  0  0  0  0  0  0  0
    5.2491    1.2328    1.1515 N   0  0  0  0  0  0  0  0  0  0  0  0
    3.4911    0.0993   -0.1659 C   0  0  0  0  0  0  0  0  0  0  0  0
    2.7492    0.0932   -1.1413 O   0  0  0  0  0  0  0  0  0  0  0  0
    4.0433   -1.0493    0.3746 N   0  0  0  0  0  0  0  0  0  0  0  0
    3.8894   -2.3536   -0.2812 C   0  0  2  0  0  0  0  0  0  0  0  0
    2.4517   -2.8386    0.0265 C   0  0  0  0  0  0  0  0  0  0  0  0
    1.7918   -3.5189   -0.7543 O   0  0  0  0  0  0  0  0  0  0  0  0
    2.0280   -2.5548    1.3156 N   0  0  0  0  0  0  0  0  0  0  0  0
    0.5994   -2.6149    1.6271 C   0  0  1  0  0  0  0  0  0  0  0  0
    0.3384   -2.8807    3.1103 C   0  0  0  0  0  0  0  0  0  0  0  0
    0.8928   -4.5450    3.6088 S   0  0  0  0  0  0  0  0  0  0  0  0
    0.0597   -1.2153    1.2924 C   0  0  0  0  0  0  0  0  0  0  0  0
    0.5919   -0.1938    1.7288 O   0  0  0  0  0  0  0  0  0  0  0  0
   -1.0259   -1.1937    0.4581 N   0  0  0  0  0  0  0  0  0  0  0  0
   -1.5984    0.0490   -0.0566 C   0  0  2  0  0  0  0  0  0  0  0  0
   -2.9781   -0.2810   -0.6638 C   0  0  0  0  0  0  0  0  0  0  0  0
   -3.4023   -1.4335   -0.7506 O   0  0  0  0  0  0  0  0  0  0  0  0
   -3.6962    0.8173   -1.0817 N   0  0  0  0  0  0  0  0  0  0  0  0
   -4.9641    0.6635   -1.7956 C   0  0  1  0  0  0  0  0  0  0  0  0
   -5.8609    1.8973   -1.6384 C   0  0  0  0  0  0  0  0  0  0  0  0
   -6.3643    2.0854   -0.2258 C   0  0  0  0  0  0  0  0  0  0  0  0
   -7.4406    1.3224    0.2512 C   0  0  0  0  0  0  0  0  0  0  0  0
   -7.8982    1.4826    1.5612 C   0  0  0  0  0  0  0  0  0  0  0  0
   -7.2768    2.4063    2.3948 C   0  0  0  0  0  0  0  0  0  0  0  0
   -7.6903    2.5939    3.6806 O   0  0  0  0  0  0  0  0  0  0  0  0
   -6.2083    3.1688    1.9404 C   0  0  0  0  0  0  0  0  0  0  0  0
   -5.7501    3.0084    0.6321 C   0  0  0  0  0  0  0  0  0  0  0  0
   -4.6727    0.4713   -3.2819 C   0  0  0  0  0  0  0  0  0  0  0  0
   -3.7040    0.8909   -3.8976 O   0  0  0  0  0  0  0  0  0  0  0  0
   -5.6506   -0.1967   -3.9288 O   0  0  0  0  0  0  0  0  0  0  0  0
   -0.6783    0.7665   -1.0720 C   0  0  1  0  0  0  0  0  0  0  0  0
   -0.4079   -0.0467   -2.3346 C   0  0  0  0  0  0  0  0  0  0  0  0
   -1.2466    2.0351   -1.4422 O   0  0  0  0  0  0  0  0  0  0  0  0
    4.9445   -3.3598    0.2304 C   0  0  0  0  0  0  0  0  0  0  0  0
    6.3633   -2.9037   -0.1366 C   0  0  0  0  0  0  0  0  0  0  0  0
    4.7205   -4.7659   -0.3381 C   0  0  0  0  0  0  0  0  0  0  0  0
    3.3162    4.7959    0.2580 H   0  0  0  0  0  0  0  0  0  0  0  0
    2.9576    3.7708    1.6528 H   0  0  0  0  0  0  0  0  0  0  0  0
    4.6402    4.0698    1.1772 H   0  0  0  0  0  0  0  0  0  0  0  0
    2.5444    2.6135   -0.5140 H   0  0  0  0  0  0  0  0  0  0  0  0
    4.4857    2.0244   -1.9999 H   0  0  0  0  0  0  0  0  0  0  0  0
    5.5322    3.0618   -1.0139 H   0  0  0  0  0  0  0  0  0  0  0  0
    4.1760    3.7595   -1.9021 H   0  0  0  0  0  0  0  0  0  0  0  0
    3.1956    1.3323    1.5289 H   0  0  0  0  0  0  0  0  0  0  0  0
    5.8884    1.3326    0.3612 H   0  0  0  0  0  0  0  0  0  0  0  0
    5.4484    2.0280    1.7598 H   0  0  0  0  0  0  0  0  0  0  0  0
    4.8247   -0.8653    1.0024 H   0  0  0  0  0  0  0  0  0  0  0  0
    3.9701   -2.2052   -1.3648 H   0  0  0  0  0  0  0  0  0  0  0  0
    2.5237   -1.7652    1.7229 H   0  0  0  0  0  0  0  0  0  0  0  0
    0.1070   -3.3676    1.0012 H   0  0  0  0  0  0  0  0  0  0  0  0
    0.8667   -2.1531    3.7369 H   0  0  0  0  0  0  0  0  0  0  0  0
   -0.7296   -2.7938    3.3371 H   0  0  0  0  0  0  0  0  0  0  0  0
    2.1097   -4.4624    3.0479 H   0  0  0  0  0  0  0  0  0  0  0  0
   -1.3809   -2.0536    0.0455 H   0  0  0  0  0  0  0  0  0  0  0  0
   -1.7770    0.7120    0.8000 H   0  0  0  0  0  0  0  0  0  0  0  0
   -3.1233    1.6319   -1.3137 H   0  0  0  0  0  0  0  0  0  0  0  0
   -5.4611   -0.2411   -1.4253 H   0  0  0  0  0  0  0  0  0  0  0  0
   -6.7298    1.8248   -2.3063 H   0  0  0  0  0  0  0  0  0  0  0  0
   -5.3241    2.8005   -1.9598 H   0  0  0  0  0  0  0  0  0  0  0  0
   -7.9282    0.5954   -0.3949 H   0  0  0  0  0  0  0  0  0  0  0  0
   -8.7317    0.8811    1.9091 H   0  0  0  0  0  0  0  0  0  0  0  0
   -8.4243    1.9838    3.8595 H   0  0  0  0  0  0  0  0  0  0  0  0
   -5.7304    3.8838    2.6039 H   0  0  0  0  0  0  0  0  0  0  0  0
   -4.9077    3.6056    0.2909 H   0  0  0  0  0  0  0  0  0  0  0  0
   -5.3197   -0.2722   -4.8488 H   0  0  0  0  0  0  0  0  0  0  0  0
    0.2784    0.9908   -0.5893 H   0  0  0  0  0  0  0  0  0  0  0  0
   -1.3259   -0.2210   -2.9040 H   0  0  0  0  0  0  0  0  0  0  0  0
    0.0512   -1.0121   -2.1025 H   0  0  0  0  0  0  0  0  0  0  0  0
    0.2675    0.5018   -3.0004 H   0  0  0  0  0  0  0  0  0  0  0  0
   -0.6077    2.4504   -2.0523 H   0  0  0  0  0  0  0  0  0  0  0  0
    4.8839   -3.4268    1.3248 H   0  0  0  0  0  0  0  0  0  0  0  0
    6.4762   -2.7989   -1.2211 H   0  0  0  0  0  0  0  0  0  0  0  0
    7.1063   -3.6297    0.2111 H   0  0  0  0  0  0  0  0  0  0  0  0
    6.6115   -1.9428    0.3241 H   0  0  0  0  0  0  0  0  0  0  0  0
    3.7797   -5.1960    0.0190 H   0  0  0  0  0  0  0  0  0  0  0  0
    4.6984   -4.7520   -1.4331 H   0  0  0  0  0  0  0  0  0  0  0  0
    5.5212   -5.4447   -0.0249 H   0  0  0  0  0  0  0  0  0  0  0  0
  1  2  1  0
  2  3  1  0
  2  4  1  0
  4  5  1  0
  4  6  1  0
  6  7  2  0
  6  8  1  0
  8  9  1  0
  9 10  1  0
 10 11  2  0
 10 12  1  0
 12 13  1  0
 13 14  1  0
 14 15  1  0
 13 16  1  0
 16 17  2  0
 16 18  1  0
 18 19  1  0
 19 20  1  0
 20 21  2  0
 20 22  1  0
 22 23  1  0
 23 24  1  0
 24 25  1  0
 25 26  2  0
 26 27  1  0
 27 28  2  0
 28 29  1  0
 28 30  1  0
 30 31  2  0
 23 32  1  0
 32 33  2  0
 32 34  1  0
 19 35  1  0
 35 36  1  0
 35 37  1  0
  9 38  1  0
 38 39  1  0
 38 40  1  0
 31 25  1  0
  1 41  1  0
  1 42  1  0
  1 43  1  0
  2 44  1  0
  3 45  1  0
  3 46  1  0
  3 47  1  0
  4 48  1  1
  5 49  1  0
  5 50  1  0
  8 51  1  0
  9 52  1  6
 12 53  1  0
 13 54  1  6
 14 55  1  0
 14 56  1  0
 15 57  1  0
 18 58  1  0
 19 59  1  1
 22 60  1  0
 23 61  1  1
 24 62  1  0
 24 63  1  0
 26 64  1  0
 27 65  1  0
 29 66  1  0
 30 67  1  0
 31 68  1  0
 34 69  1  0
 35 70  1  1
 36 71  1  0
 36 72  1  0
 36 73  1  0
 37 74  1  0
 38 75  1  0
 39 76  1  0
 39 77  1  0
 39 78  1  0
 40 79  1  0
 40 80  1  0
 40 81  1  0
M  END
$$$$
VVCTY.sdf
     RDKit          3D

 81 81  0  0  0  0  0  0  0  0999 V2000
    7.3552    1.4647   -0.9444 C   0  0  0  0  0  0  0  0  0  0  0  0
    7.8687    0.9381    0.4015 C   0  0  0  0  0  0  0  0  0  0  0  0
    9.3963    1.0559    0.4506 C   0  0  0  0  0  0  0  0  0  0  0  0
    7.4053   -0.5070    0.7103 C   0  0  2  0  0  0  0  0  0  0  0  0
    7.8327   -1.4603   -0.3369 N   0  0  0  0  0  0  0  0  0  0  0  0
    5.8742   -0.5815    0.9681 C   0  0  0  0  0  0  0  0  0  0  0  0
    5.2069    0.3938    1.2966 O   0  0  0  0  0  0  0  0  0  0  0  0
    5.3410   -1.8526    0.8403 N   0  0  0  0  0  0  0  0  0  0  0  0
    3.8993   -2.1105    0.8978 C   0  0  2  0  0  0  0  0  0  0  0  0
    3.1933   -1.3820   -0.2809 C   0  0  0  0  0  0  0  0  0  0  0  0
    3.7976   -1.0967   -1.3188 O   0  0  0  0  0  0  0  0  0  0  0  0
    1.8358   -1.1989   -0.1780 N   0  0  0  0  0  0  0  0  0  0  0  0
    1.1046   -0.4115   -1.1776 C   0  0  1  0  0  0  0  0  0  0  0  0
    0.8385   -1.2288   -2.4496 C   0  0  0  0  0  0  0  0  0  0  0  0
    0.6057   -0.1652   -3.9175 S   0  0  0  0  0  0  0  0  0  0  0  0
   -0.2096    0.0342   -0.4991 C   0  0  0  0  0  0  0  0  0  0  0  0
   -0.4813   -0.2926    0.6577 O   0  0  0  0  0  0  0  0  0  0  0  0
   -1.0251    0.8450   -1.2583 N   0  0  0  0  0  0  0  0  0  0  0  0
   -2.3866    1.1388   -0.8104 C   0  0  2  0  0  0  0  0  0  0  0  0
   -3.3191    0.0046   -1.2810 C   0  0  0  0  0  0  0  0  0  0  0  0
   -3.0347   -0.7503   -2.2094 O   0  0  0  0  0  0  0  0  0  0  0  0
   -4.5260   -0.0464   -0.6115 N   0  0  0  0  0  0  0  0  0  0  0  0
   -5.6641   -0.7640   -1.1907 C   0  0  1  0  0  0  0  0  0  0  0  0
   -6.6117   -1.3242   -0.1204 C   0  0  0  0  0  0  0  0  0  0  0  0
   -7.2044   -0.2915    0.8132 C   0  0  0  0  0  0  0  0  0  0  0  0
   -6.5311    0.0705    1.9892 C   0  0  0  0  0  0  0  0  0  0  0  0
   -7.0659    1.0376    2.8406 C   0  0  0  0  0  0  0  0  0  0  0  0
   -8.2748    1.6427    2.5224 C   0  0  0  0  0  0  0  0  0  0  0  0
   -8.7605    2.5818    3.3829 O   0  0  0  0  0  0  0  0  0  0  0  0
   -8.9623    1.2947    1.3648 C   0  0  0  0  0  0  0  0  0  0  0  0
   -8.4269    0.3267    0.5118 C   0  0  0  0  0  0  0  0  0  0  0  0
   -6.3803    0.1907   -2.1511 C   0  0  0  0  0  0  0  0  0  0  0  0
   -6.1196    1.3752   -2.3248 O   0  0  0  0  0  0  0  0  0  0  0  0
   -7.3670   -0.3992   -2.8558 O   0  0  0  0  0  0  0  0  0  0  0  0
   -2.9014    2.5039   -1.3237 C   0  0  1  0  0  0  0  0  0  0  0  0
   -2.9279    2.6464   -2.8444 C   0  0  0  0  0  0  0  0  0  0  0  0
   -4.2014    2.7849   -0.7863 O   0  0  0  0  0  0  0  0  0  0  0  0
    3.2546   -2.0550    2.3057 C   0  0  0  0  0  0  0  0  0  0  0  0
    3.1015   -0.6679    2.9275 C   0  0  0  0  0  0  0  0  0  0  0  0
    3.9905   -2.9770    3.2869 C   0  0  0  0  0  0  0  0  0  0  0  0
    7.6299    2.5177   -1.0710 H   0  0  0  0  0  0  0  0  0  0  0  0
    6.2648    1.4001   -1.0108 H   0  0  0  0  0  0  0  0  0  0  0  0
    7.7809    0.9106   -1.7874 H   0  0  0  0  0  0  0  0  0  0  0  0
    7.4709    1.5992    1.1831 H   0  0  0  0  0  0  0  0  0  0  0  0
    9.7817    0.7143    1.4170 H   0  0  0  0  0  0  0  0  0  0  0  0
    9.7066    2.0982    0.3195 H   0  0  0  0  0  0  0  0  0  0  0  0
    9.8752    0.4639   -0.3364 H   0  0  0  0  0  0  0  0  0  0  0  0
    7.8740   -0.8213    1.6521 H   0  0  0  0  0  0  0  0  0  0  0  0
    7.2339   -1.3588   -1.1569 H   0  0  0  0  0  0  0  0  0  0  0  0
    7.7829   -2.4157    0.0026 H   0  0  0  0  0  0  0  0  0  0  0  0
    5.8481   -2.4404    0.1953 H   0  0  0  0  0  0  0  0  0  0  0  0
    3.8274   -3.1676    0.5978 H   0  0  0  0  0  0  0  0  0  0  0  0
    1.3902   -1.2364    0.7352 H   0  0  0  0  0  0  0  0  0  0  0  0
    1.7051    0.4837   -1.3821 H   0  0  0  0  0  0  0  0  0  0  0  0
    1.6708   -1.9020   -2.6770 H   0  0  0  0  0  0  0  0  0  0  0  0
   -0.0571   -1.8489   -2.3332 H   0  0  0  0  0  0  0  0  0  0  0  0
    1.8864    0.2305   -4.0124 H   0  0  0  0  0  0  0  0  0  0  0  0
   -0.9073    0.7608   -2.2659 H   0  0  0  0  0  0  0  0  0  0  0  0
   -2.4108    1.1404    0.2869 H   0  0  0  0  0  0  0  0  0  0  0  0
   -4.7578    0.7926   -0.0791 H   0  0  0  0  0  0  0  0  0  0  0  0
   -5.2773   -1.5932   -1.7949 H   0  0  0  0  0  0  0  0  0  0  0  0
   -7.4309   -1.8770   -0.5985 H   0  0  0  0  0  0  0  0  0  0  0  0
   -6.0721   -2.0663    0.4833 H   0  0  0  0  0  0  0  0  0  0  0  0
   -5.5845   -0.3980    2.2522 H   0  0  0  0  0  0  0  0  0  0  0  0
   -6.5410    1.3177    3.7497 H   0  0  0  0  0  0  0  0  0  0  0  0
   -9.5945    2.9282    3.0264 H   0  0  0  0  0  0  0  0  0  0  0  0
   -9.9097    1.7601    1.1127 H   0  0  0  0  0  0  0  0  0  0  0  0
   -8.9757    0.0554   -0.3877 H   0  0  0  0  0  0  0  0  0  0  0  0
   -7.6956    0.3046   -3.4548 H   0  0  0  0  0  0  0  0  0  0  0  0
   -2.2373    3.2825   -0.9296 H   0  0  0  0  0  0  0  0  0  0  0  0
   -3.5784    1.8992   -3.3093 H   0  0  0  0  0  0  0  0  0  0  0  0
   -3.3314    3.6260   -3.1236 H   0  0  0  0  0  0  0  0  0  0  0  0
   -1.9275    2.5538   -3.2764 H   0  0  0  0  0  0  0  0  0  0  0  0
   -4.8753    2.5726   -1.4697 H   0  0  0  0  0  0  0  0  0  0  0  0
    2.2395   -2.4629    2.2085 H   0  0  0  0  0  0  0  0  0  0  0  0
    4.0497   -0.2900    3.3207 H   0  0  0  0  0  0  0  0  0  0  0  0
    2.6961    0.0583    2.2177 H   0  0  0  0  0  0  0  0  0  0  0  0
    2.4084   -0.7138    3.7756 H   0  0  0  0  0  0  0  0  0  0  0  0
    5.0076   -2.6237    3.4870 H   0  0  0  0  0  0  0  0  0  0  0  0
    4.0545   -3.9964    2.8919 H   0  0  0  0  0  0  0  0  0  0  0  0
    3.4592   -3.0252    4.2437 H   0  0  0  0  0  0  0  0  0  0  0  0
  1  2  1  0
  2  3  1  0
  2  4  1  0
  4  5  1  0
  4  6  1  0
  6  7  2  0
  6  8  1  0
  8  9  1  0
  9 10  1  0
 10 11  2  0
 10 12  1  0
 12 13  1  0
 13 14  1  0
 14 15  1  0
 13 16  1  0
 16 17  2  0
 16 18  1  0
 18 19  1  0
 19 20  1  0
 20 21  2  0
 20 22  1  0
 22 23  1  0
 23 24  1  0
 24 25  1  0
 25 26  2  0
 26 27  1  0
 27 28  2  0
 28 29  1  0
 28 30  1  0
 30 31  2  0
 23 32  1  0
 32 33  2  0
 32 34  1  0
 19 35  1  0
 35 36  1  0
 35 37  1  0
  9 38  1  0
 38 39  1  0
 38 40  1  0
 31 25  1  0
  1 41  1  0
  1 42  1  0
  1 43  1  0
  2 44  1  0
  3 45  1  0
  3 46  1  0
  3 47  1  0
  4 48  1  1
  5 49  1  0
  5 50  1  0
  8 51  1  0
  9 52  1  6
 12 53  1  0
 13 54  1  6
 14 55  1  0
 14 56  1  0
 15 57  1  0
 18 58  1  0
 19 59  1  1
 22 60  1  0
 23 61  1  6
 24 62  1  0
 24 63  1  0
 26 64  1  0
 27 65  1  0
 29 66  1  0
 30 67  1  0
 31 68  1  0
 34 69  1  0
 35 70  1  1
 36 71  1  0
 36 72  1  0
 36 73  1  0
 37 74  1  0
 38 75  1  0
 39 76  1  0
 39 77  1  0
 39 78  1  0
 40 79  1  0
 40 80  1  0
 40 81  1  0
M  END
$$$$
VVCTY.sdf
     RDKit          3D

 81 81  0  0  0  0  0  0  0  0999 V2000
    8.2795    0.3990    1.3129 C   0  0  0  0  0  0  0  0  0  0  0  0
    8.5710   -0.7417    0.3324 C   0  0  0  0  0  0  0  0  0  0  0  0
    9.0563   -1.9710    1.1092 C   0  0  0  0  0  0  0  0  0  0  0  0
    7.3975   -1.1027   -0.6080 C   0  0  2  0  0  0  0  0  0  0  0  0
    7.0802    0.0126   -1.5308 N   0  0  0  0  0  0  0  0  0  0  0  0
    6.1299   -1.5730    0.1479 C   0  0  0  0  0  0  0  0  0  0  0  0
    5.9406   -2.7516    0.4385 O   0  0  0  0  0  0  0  0  0  0  0  0
    5.2549   -0.5650    0.5039 N   0  0  0  0  0  0  0  0  0  0  0  0
    3.8977   -0.8894    0.9350 C   0  0  2  0  0  0  0  0  0  0  0  0
    2.9995   -0.8338   -0.3232 C   0  0  0  0  0  0  0  0  0  0  0  0
    3.3415   -0.2381   -1.3459 O   0  0  0  0  0  0  0  0  0  0  0  0
    1.7808   -1.4672   -0.1951 N   0  0  0  0  0  0  0  0  0  0  0  0
    0.7241   -1.2400   -1.1879 C   0  0  1  0  0  0  0  0  0  0  0  0
   -0.1477   -2.4916   -1.3388 C   0  0  0  0  0  0  0  0  0  0  0  0
   -1.2488   -2.4429   -2.7923 S   0  0  0  0  0  0  0  0  0  0  0  0
   -0.1037   -0.0498   -0.6613 C   0  0  0  0  0  0  0  0  0  0  0  0
   -0.1528    0.2315    0.5363 O   0  0  0  0  0  0  0  0  0  0  0  0
   -0.7989    0.6472   -1.6278 N   0  0  0  0  0  0  0  0  0  0  0  0
   -1.8284    1.6155   -1.2390 C   0  0  2  0  0  0  0  0  0  0  0  0
   -3.1768    0.8724   -1.1009 C   0  0  0  0  0  0  0  0  0  0  0  0
   -3.3040   -0.3269   -1.3511 O   0  0  0  0  0  0  0  0  0  0  0  0
   -4.2223    1.6497   -0.6686 N   0  0  0  0  0  0  0  0  0  0  0  0
   -5.5717    1.1151   -0.4732 C   0  0  1  0  0  0  0  0  0  0  0  0
   -5.6945    0.4339    0.8963 C   0  0  0  0  0  0  0  0  0  0  0  0
   -6.9693   -0.3587    1.0615 C   0  0  0  0  0  0  0  0  0  0  0  0
   -7.1240   -1.5918    0.4104 C   0  0  0  0  0  0  0  0  0  0  0  0
   -8.3058   -2.3229    0.5476 C   0  0  0  0  0  0  0  0  0  0  0  0
   -9.3333   -1.8192    1.3379 C   0  0  0  0  0  0  0  0  0  0  0  0
  -10.5042   -2.4991    1.4991 O   0  0  0  0  0  0  0  0  0  0  0  0
   -9.1969   -0.6010    1.9918 C   0  0  0  0  0  0  0  0  0  0  0  0
   -8.0161    0.1301    1.8553 C   0  0  0  0  0  0  0  0  0  0  0  0
   -6.5485    2.2815   -0.5745 C   0  0  0  0  0  0  0  0  0  0  0  0
   -6.3601    3.4148   -0.1556 O   0  0  0  0  0  0  0  0  0  0  0  0
   -7.6992    1.9671   -1.1999 O   0  0  0  0  0  0  0  0  0  0  0  0
   -1.9083    2.7966   -2.2282 C   0  0  1  0  0  0  0  0  0  0  0  0
   -2.4519    2.4291   -3.6050 C   0  0  0  0  0  0  0  0  0  0  0  0
   -2.7196    3.8390   -1.6716 O   0  0  0  0  0  0  0  0  0  0  0  0
    3.3849    0.0627    2.0383 C   0  0  0  0  0  0  0  0  0  0  0  0
    3.4245    1.5403    1.6347 C   0  0  0  0  0  0  0  0  0  0  0  0
    4.1671   -0.1423    3.3392 C   0  0  0  0  0  0  0  0  0  0  0  0
    7.9748    1.3134    0.7960 H   0  0  0  0  0  0  0  0  0  0  0  0
    7.4959    0.1289    2.0271 H   0  0  0  0  0  0  0  0  0  0  0  0
    9.1782    0.6407    1.8917 H   0  0  0  0  0  0  0  0  0  0  0  0
    9.4097   -0.4176   -0.2998 H   0  0  0  0  0  0  0  0  0  0  0  0
    9.9687   -1.7371    1.6686 H   0  0  0  0  0  0  0  0  0  0  0  0
    8.3069   -2.3186    1.8277 H   0  0  0  0  0  0  0  0  0  0  0  0
    9.2880   -2.7970    0.4286 H   0  0  0  0  0  0  0  0  0  0  0  0
    7.6985   -1.9429   -1.2465 H   0  0  0  0  0  0  0  0  0  0  0  0
    6.2270   -0.2048   -2.0501 H   0  0  0  0  0  0  0  0  0  0  0  0
    6.9378    0.8845   -1.0318 H   0  0  0  0  0  0  0  0  0  0  0  0
    5.3206    0.2634   -0.0734 H   0  0  0  0  0  0  0  0  0  0  0  0
    3.8710   -1.9212    1.3065 H   0  0  0  0  0  0  0  0  0  0  0  0
    1.4525   -1.6192    0.7532 H   0  0  0  0  0  0  0  0  0  0  0  0
    1.1862   -0.9658   -2.1433 H   0  0  0  0  0  0  0  0  0  0  0  0
   -0.7618   -2.6565   -0.4465 H   0  0  0  0  0  0  0  0  0  0  0  0
    0.4947   -3.3710   -1.4588 H   0  0  0  0  0  0  0  0  0  0  0  0
   -2.2666   -1.7883   -2.1938 H   0  0  0  0  0  0  0  0  0  0  0  0
   -0.9681    0.1426   -2.4932 H   0  0  0  0  0  0  0  0  0  0  0  0
   -1.5908    2.0071   -0.2415 H   0  0  0  0  0  0  0  0  0  0  0  0
   -4.0742    2.6568   -0.5655 H   0  0  0  0  0  0  0  0  0  0  0  0
   -5.7680    0.4149   -1.2939 H   0  0  0  0  0  0  0  0  0  0  0  0
   -5.6172    1.1813    1.6976 H   0  0  0  0  0  0  0  0  0  0  0  0
   -4.8505   -0.2498    1.0585 H   0  0  0  0  0  0  0  0  0  0  0  0
   -6.3209   -1.9902   -0.2076 H   0  0  0  0  0  0  0  0  0  0  0  0
   -8.4034   -3.2741    0.0344 H   0  0  0  0  0  0  0  0  0  0  0  0
  -10.4500   -3.3284    0.9967 H   0  0  0  0  0  0  0  0  0  0  0  0
  -10.0075   -0.2222    2.6077 H   0  0  0  0  0  0  0  0  0  0  0  0
   -7.9222    1.0817    2.3739 H   0  0  0  0  0  0  0  0  0  0  0  0
   -8.2342    2.7873   -1.1695 H   0  0  0  0  0  0  0  0  0  0  0  0
   -0.9006    3.2130   -2.3494 H   0  0  0  0  0  0  0  0  0  0  0  0
   -1.8627    1.6371   -4.0757 H   0  0  0  0  0  0  0  0  0  0  0  0
   -3.4979    2.1098   -3.5526 H   0  0  0  0  0  0  0  0  0  0  0  0
   -2.4333    3.3055   -4.2625 H   0  0  0  0  0  0  0  0  0  0  0  0
   -2.6348    4.6169   -2.2538 H   0  0  0  0  0  0  0  0  0  0  0  0
    2.3370   -0.1852    2.2505 H   0  0  0  0  0  0  0  0  0  0  0  0
    2.8368    1.7216    0.7294 H   0  0  0  0  0  0  0  0  0  0  0  0
    3.0012    2.1648    2.4291 H   0  0  0  0  0  0  0  0  0  0  0  0
    4.4479    1.8851    1.4541 H   0  0  0  0  0  0  0  0  0  0  0  0
    5.2202    0.1344    3.2254 H   0  0  0  0  0  0  0  0  0  0  0  0
    3.7456    0.4697    4.1438 H   0  0  0  0  0  0  0  0  0  0  0  0
    4.1223   -1.1886    3.6593 H   0  0  0  0  0  0  0  0  0  0  0  0
  1  2  1  0
  2  3  1  0
  2  4  1  0
  4  5  1  0
  4  6  1  0
  6  7  2  0
  6  8  1  0
  8  9  1  0
  9 10  1  0
 10 11  2  0
 10 12  1  0
 12 13  1  0
 13 14  1  0
 14 15  1  0
 13 16  1  0
 16 17  2  0
 16 18  1  0
 18 19  1  0
 19 20  1  0
 20 21  2  0
 20 22  1  0
 22 23  1  0
 23 24  1  0
 24 25  1  0
 25 26  2  0
 26 27  1  0
 27 28  2  0
 28 29  1  0
 28 30  1  0
 30 31  2  0
 23 32  1  0
 32 33  2  0
 32 34  1  0
 19 35  1  0
 35 36  1  0
 35 37  1  0
  9 38  1  0
 38 39  1  0
 38 40  1  0
 31 25  1  0
  1 41  1  0
  1 42  1  0
  1 43  1  0
  2 44  1  0
  3 45  1  0
  3 46  1  0
  3 47  1  0
  4 48  1  6
  5 49  1  0
  5 50  1  0
  8 51  1  0
  9 52  1  1
 12 53  1  0
 13 54  1  6
 14 55  1  0
 14 56  1  0
 15 57  1  0
 18 58  1  0
 19 59  1  1
 22 60  1  0
 23 61  1  6
 24 62  1  0
 24 63  1  0
 26 64  1  0
 27 65  1  0
 29 66  1  0
 30 67  1  0
 31 68  1  0
 34 69  1  0
 35 70  1  6
 36 71  1  0
 36 72  1  0
 36 73  1  0
 37 74  1  0
 38 75  1  0
 39 76  1  0
 39 77  1  0
 39 78  1  0
 40 79  1  0
 40 80  1  0
 40 81  1  0
M  END
$$$$
VVCTY.sdf
     RDKit          3D

 81 81  0  0  0  0  0  0  0  0999 V2000
    5.8622   -3.0275   -0.6373 C   0  0  0  0  0  0  0  0  0  0  0  0
    7.0899   -2.1642   -0.3366 C   0  0  0  0  0  0  0  0  0  0  0  0
    8.3607   -3.0180   -0.4356 C   0  0  0  0  0  0  0  0  0  0  0  0
    7.0077   -1.4253    1.0216 C   0  0  2  0  0  0  0  0  0  0  0  0
    7.0053   -2.3689    2.1624 N   0  0  0  0  0  0  0  0  0  0  0  0
    5.7913   -0.4654    1.1639 C   0  0  0  0  0  0  0  0  0  0  0  0
    5.0668   -0.4639    2.1622 O   0  0  0  0  0  0  0  0  0  0  0  0
    5.6046    0.4296    0.1344 N   0  0  0  0  0  0  0  0  0  0  0  0
    4.4885    1.3789    0.1457 C   0  0  2  0  0  0  0  0  0  0  0  0
    3.2390    0.6188   -0.3670 C   0  0  0  0  0  0  0  0  0  0  0  0
    2.7658    0.7582   -1.4921 O   0  0  0  0  0  0  0  0  0  0  0  0
    2.7130   -0.2721    0.5467 N   0  0  0  0  0  0  0  0  0  0  0  0
    1.3875   -0.8425    0.3485 C   0  0  1  0  0  0  0  0  0  0  0  0
    1.1406   -2.0993    1.1897 C   0  0  0  0  0  0  0  0  0  0  0  0
    2.2349   -3.4863    0.7399 S   0  0  0  0  0  0  0  0  0  0  0  0
    0.3491    0.2169    0.7676 C   0  0  0  0  0  0  0  0  0  0  0  0
    0.5723    1.0864    1.6097 O   0  0  0  0  0  0  0  0  0  0  0  0
   -0.8771    0.0974    0.1606 N   0  0  0  0  0  0  0  0  0  0  0  0
   -1.9825    1.0416    0.4002 C   0  0  2  0  0  0  0  0  0  0  0  0
   -3.2084    0.4052   -0.2754 C   0  0  0  0  0  0  0  0  0  0  0  0
   -3.1028   -0.2723   -1.2974 O   0  0  0  0  0  0  0  0  0  0  0  0
   -4.4110    0.6261    0.3589 N   0  0  0  0  0  0  0  0  0  0  0  0
   -5.6827    0.1991   -0.2470 C   0  0  1  0  0  0  0  0  0  0  0  0
   -6.6657   -0.2382    0.8458 C   0  0  0  0  0  0  0  0  0  0  0  0
   -7.9415   -0.8423    0.3105 C   0  0  0  0  0  0  0  0  0  0  0  0
   -9.1434   -0.1219    0.3593 C   0  0  0  0  0  0  0  0  0  0  0  0
  -10.3188   -0.6762   -0.1491 C   0  0  0  0  0  0  0  0  0  0  0  0
  -10.2965   -1.9484   -0.7064 C   0  0  0  0  0  0  0  0  0  0  0  0
  -11.4676   -2.4494   -1.1923 O   0  0  0  0  0  0  0  0  0  0  0  0
   -9.1154   -2.6802   -0.7634 C   0  0  0  0  0  0  0  0  0  0  0  0
   -7.9386   -2.1264   -0.2543 C   0  0  0  0  0  0  0  0  0  0  0  0
   -6.2465    1.3964   -1.0066 C   0  0  0  0  0  0  0  0  0  0  0  0
   -6.2280    2.5563   -0.6184 O   0  0  0  0  0  0  0  0  0  0  0  0
   -6.8027    1.0744   -2.1888 O   0  0  0  0  0  0  0  0  0  0  0  0
   -1.6492    2.4579   -0.1307 C   0  0  1  0  0  0  0  0  0  0  0  0
   -2.8522    3.3138   -0.5051 C   0  0  0  0  0  0  0  0  0  0  0  0
   -0.9418    3.1990    0.8765 O   0  0  0  0  0  0  0  0  0  0  0  0
    4.8047    2.6292   -0.7074 C   0  0  0  0  0  0  0  0  0  0  0  0
    6.1374    3.2702   -0.2984 C   0  0  0  0  0  0  0  0  0  0  0  0
    3.6946    3.6806   -0.5767 C   0  0  0  0  0  0  0  0  0  0  0  0
    5.9516   -3.4892   -1.6269 H   0  0  0  0  0  0  0  0  0  0  0  0
    5.7403   -3.8339    0.0924 H   0  0  0  0  0  0  0  0  0  0  0  0
    4.9502   -2.4240   -0.6426 H   0  0  0  0  0  0  0  0  0  0  0  0
    7.1621   -1.4164   -1.1355 H   0  0  0  0  0  0  0  0  0  0  0  0
    8.4636   -3.4380   -1.4421 H   0  0  0  0  0  0  0  0  0  0  0  0
    8.3472   -3.8535    0.2720 H   0  0  0  0  0  0  0  0  0  0  0  0
    9.2517   -2.4135   -0.2359 H   0  0  0  0  0  0  0  0  0  0  0  0
    7.8995   -0.7943    1.1289 H   0  0  0  0  0  0  0  0  0  0  0  0
    6.1299   -2.8969    2.1368 H   0  0  0  0  0  0  0  0  0  0  0  0
    6.9142   -1.8120    3.0172 H   0  0  0  0  0  0  0  0  0  0  0  0
    6.0214    0.2339   -0.7655 H   0  0  0  0  0  0  0  0  0  0  0  0
    4.2981    1.6876    1.1819 H   0  0  0  0  0  0  0  0  0  0  0  0
    3.0995   -0.2472    1.4913 H   0  0  0  0  0  0  0  0  0  0  0  0
    1.2506   -1.0569   -0.7186 H   0  0  0  0  0  0  0  0  0  0  0  0
    1.2913   -1.8873    2.2543 H   0  0  0  0  0  0  0  0  0  0  0  0
    0.1071   -2.4425    1.0714 H   0  0  0  0  0  0  0  0  0  0  0  0
    1.9079   -3.5353   -0.5601 H   0  0  0  0  0  0  0  0  0  0  0  0
   -0.9670   -0.4742   -0.6772 H   0  0  0  0  0  0  0  0  0  0  0  0
   -2.1397    1.0699    1.4856 H   0  0  0  0  0  0  0  0  0  0  0  0
   -4.4666    1.4085    1.0041 H   0  0  0  0  0  0  0  0  0  0  0  0
   -5.4831   -0.6125   -0.9554 H   0  0  0  0  0  0  0  0  0  0  0  0
   -6.1860   -0.9791    1.4998 H   0  0  0  0  0  0  0  0  0  0  0  0
   -6.9062    0.6111    1.4998 H   0  0  0  0  0  0  0  0  0  0  0  0
   -9.1770    0.8759    0.7915 H   0  0  0  0  0  0  0  0  0  0  0  0
  -11.2495   -0.1172   -0.1105 H   0  0  0  0  0  0  0  0  0  0  0  0
  -11.3001   -3.3370   -1.5487 H   0  0  0  0  0  0  0  0  0  0  0  0
   -9.0898   -3.6747   -1.1973 H   0  0  0  0  0  0  0  0  0  0  0  0
   -7.0184   -2.7053   -0.3026 H   0  0  0  0  0  0  0  0  0  0  0  0
   -7.1305    1.9210   -2.5569 H   0  0  0  0  0  0  0  0  0  0  0  0
   -0.9889    2.3897   -1.0036 H   0  0  0  0  0  0  0  0  0  0  0  0
   -2.5252    4.3178   -0.7991 H   0  0  0  0  0  0  0  0  0  0  0  0
   -3.5224    3.4484    0.3504 H   0  0  0  0  0  0  0  0  0  0  0  0
   -3.4120    2.8863   -1.3414 H   0  0  0  0  0  0  0  0  0  0  0  0
   -0.2248    2.6206    1.2199 H   0  0  0  0  0  0  0  0  0  0  0  0
    4.8825    2.3419   -1.7641 H   0  0  0  0  0  0  0  0  0  0  0  0
    6.1385    3.5384    0.7637 H   0  0  0  0  0  0  0  0  0  0  0  0
    6.9789    2.5941   -0.4803 H   0  0  0  0  0  0  0  0  0  0  0  0
    6.3240    4.1813   -0.8773 H   0  0  0  0  0  0  0  0  0  0  0  0
    3.9267    4.5650   -1.1801 H   0  0  0  0  0  0  0  0  0  0  0  0
    3.5774    4.0043    0.4633 H   0  0  0  0  0  0  0  0  0  0  0  0
    2.7292    3.2977   -0.9203 H   0  0  0  0  0  0  0  0  0  0  0  0
  1  2  1  0
  2  3  1  0
  2  4  1  0
  4  5  1  0
  4  6  1  0
  6  7  2  0
  6  8  1  0
  8  9  1  0
  9 10  1  0
 10 11  2  0
 10 12  1  0
 12 13  1  0
 13 14  1  0
 14 15  1  0
 13 16  1  0
 16 17  2  0
 16 18  1  0
 18 19  1  0
 19 20  1  0
 20 21  2  0
 20 22  1  0
 22 23  1  0
 23 24  1  0
 24 25  1  0
 25 26  2  0
 26 27  1  0
 27 28  2  0
 28 29  1  0
 28 30  1  0
 30 31  2  0
 23 32  1  0
 32 33  2  0
 32 34  1  0
 19 35  1  0
 35 36  1  0
 35 37  1  0
  9 38  1  0
 38 39  1  0
 38 40  1  0
 31 25  1  0
  1 41  1  0
  1 42  1  0
  1 43  1  0
  2 44  1  0
  3 45  1  0
  3 46  1  0
  3 47  1  0
  4 48  1  1
  5 49  1  0
  5 50  1  0
  8 51  1  0
  9 52  1  1
 12 53  1  0
 13 54  1  6
 14 55  1  0
 14 56  1  0
 15 57  1  0
 18 58  1  0
 19 59  1  1
 22 60  1  0
 23 61  1  6
 24 62  1  0
 24 63  1  0
 26 64  1  0
 27 65  1  0
 29 66  1  0
 30 67  1  0
 31 68  1  0
 34 69  1  0
 35 70  1  6
 36 71  1  0
 36 72  1  0
 36 73  1  0
 37 74  1  0
 38 75  1  0
 39 76  1  0
 39 77  1  0
 39 78  1  0
 40 79  1  0
 40 80  1  0
 40 81  1  0
M  END
$$$$
VVCTY.sdf
     RDKit          3D

 81 81  0  0  0  0  0  0  0  0999 V2000
    4.7497   -3.0320   -0.3467 C   0  0  0  0  0  0  0  0  0  0  0  0
    5.4857   -1.6880   -0.3218 C   0  0  0  0  0  0  0  0  0  0  0  0
    6.9572   -1.9128    0.0424 C   0  0  0  0  0  0  0  0  0  0  0  0
    4.8234   -0.6430    0.6048 C   0  0  2  0  0  0  0  0  0  0  0  0
    4.6497   -1.0720    2.0028 N   0  0  0  0  0  0  0  0  0  0  0  0
    3.4470   -0.1998    0.0491 C   0  0  0  0  0  0  0  0  0  0  0  0
    2.3890   -0.7251    0.3914 O   0  0  0  0  0  0  0  0  0  0  0  0
    3.4903    0.8791   -0.8115 N   0  0  0  0  0  0  0  0  0  0  0  0
    2.3123    1.3294   -1.5787 C   0  0  2  0  0  0  0  0  0  0  0  0
    1.1495    1.8002   -0.6472 C   0  0  0  0  0  0  0  0  0  0  0  0
   -0.0080    1.9443   -1.0347 O   0  0  0  0  0  0  0  0  0  0  0  0
    1.5438    2.1414    0.6279 N   0  0  0  0  0  0  0  0  0  0  0  0
    0.6360    2.5728    1.6937 C   0  0  1  0  0  0  0  0  0  0  0  0
   -0.2226    3.8035    1.3651 C   0  0  0  0  0  0  0  0  0  0  0  0
    0.7968    5.2579    0.9240 S   0  0  0  0  0  0  0  0  0  0  0  0
   -0.2405    1.4207    2.2457 C   0  0  0  0  0  0  0  0  0  0  0  0
   -1.2612    1.6284    2.9002 O   0  0  0  0  0  0  0  0  0  0  0  0
    0.2912    0.1564    2.1206 N   0  0  0  0  0  0  0  0  0  0  0  0
   -0.4146   -1.0963    2.4342 C   0  0  2  0  0  0  0  0  0  0  0  0
   -1.3790   -1.4177    1.2760 C   0  0  0  0  0  0  0  0  0  0  0  0
   -1.0113   -2.0593    0.2927 O   0  0  0  0  0  0  0  0  0  0  0  0
   -2.6161   -0.8143    1.3478 N   0  0  0  0  0  0  0  0  0  0  0  0
   -3.3886   -0.5684    0.1261 C   0  0  1  0  0  0  0  0  0  0  0  0
   -4.8830   -0.4598    0.4398 C   0  0  0  0  0  0  0  0  0  0  0  0
   -5.7412   -0.3705   -0.8001 C   0  0  0  0  0  0  0  0  0  0  0  0
   -6.0567   -1.5259   -1.5299 C   0  0  0  0  0  0  0  0  0  0  0  0
   -6.8350   -1.4433   -2.6866 C   0  0  0  0  0  0  0  0  0  0  0  0
   -7.2957   -0.2025   -3.1142 C   0  0  0  0  0  0  0  0  0  0  0  0
   -8.0576   -0.0769   -4.2383 O   0  0  0  0  0  0  0  0  0  0  0  0
   -6.9903    0.9527   -2.4057 C   0  0  0  0  0  0  0  0  0  0  0  0
   -6.2124    0.8707   -1.2501 C   0  0  0  0  0  0  0  0  0  0  0  0
   -2.8600    0.7582   -0.4146 C   0  0  0  0  0  0  0  0  0  0  0  0
   -2.9138    1.8349    0.1651 O   0  0  0  0  0  0  0  0  0  0  0  0
   -2.1615    0.6168   -1.5583 O   0  0  0  0  0  0  0  0  0  0  0  0
   -1.0358   -1.2518    3.8430 C   0  0  1  0  0  0  0  0  0  0  0  0
   -0.0107   -1.0325    4.9507 C   0  0  0  0  0  0  0  0  0  0  0  0
   -2.1548   -0.3980    4.0899 O   0  0  0  0  0  0  0  0  0  0  0  0
    1.8307    0.3175   -2.6549 C   0  0  0  0  0  0  0  0  0  0  0  0
    2.9831   -0.4474   -3.3189 C   0  0  0  0  0  0  0  0  0  0  0  0
    1.0397    1.0205   -3.7699 C   0  0  0  0  0  0  0  0  0  0  0  0
    5.2214   -3.7128   -1.0639 H   0  0  0  0  0  0  0  0  0  0  0  0
    4.7654   -3.5216    0.6325 H   0  0  0  0  0  0  0  0  0  0  0  0
    3.7060   -2.9103   -0.6515 H   0  0  0  0  0  0  0  0  0  0  0  0
    5.4683   -1.2899   -1.3446 H   0  0  0  0  0  0  0  0  0  0  0  0
    7.4395   -2.5641   -0.6948 H   0  0  0  0  0  0  0  0  0  0  0  0
    7.5047   -0.9646    0.0543 H   0  0  0  0  0  0  0  0  0  0  0  0
    7.0687   -2.3848    1.0237 H   0  0  0  0  0  0  0  0  0  0  0  0
    5.4609    0.2499    0.6331 H   0  0  0  0  0  0  0  0  0  0  0  0
    3.8603   -1.7231    2.0399 H   0  0  0  0  0  0  0  0  0  0  0  0
    5.4629   -1.5971    2.3172 H   0  0  0  0  0  0  0  0  0  0  0  0
    4.3940    1.1354   -1.1902 H   0  0  0  0  0  0  0  0  0  0  0  0
    2.6588    2.2411   -2.0840 H   0  0  0  0  0  0  0  0  0  0  0  0
    2.5152    1.9906    0.8694 H   0  0  0  0  0  0  0  0  0  0  0  0
    1.2984    2.8326    2.5317 H   0  0  0  0  0  0  0  0  0  0  0  0
   -0.9111    3.6103    0.5388 H   0  0  0  0  0  0  0  0  0  0  0  0
   -0.8344    4.0867    2.2282 H   0  0  0  0  0  0  0  0  0  0  0  0
   -0.2324    6.0683    0.6344 H   0  0  0  0  0  0  0  0  0  0  0  0
    1.0228    0.0456    1.4148 H   0  0  0  0  0  0  0  0  0  0  0  0
    0.3698   -1.8640    2.3685 H   0  0  0  0  0  0  0  0  0  0  0  0
   -2.7316   -0.1373    2.1032 H   0  0  0  0  0  0  0  0  0  0  0  0
   -3.1948   -1.3669   -0.5990 H   0  0  0  0  0  0  0  0  0  0  0  0
   -5.2040   -1.3351    1.0207 H   0  0  0  0  0  0  0  0  0  0  0  0
   -5.0829    0.4039    1.0884 H   0  0  0  0  0  0  0  0  0  0  0  0
   -5.6957   -2.4984   -1.2011 H   0  0  0  0  0  0  0  0  0  0  0  0
   -7.0668   -2.3503   -3.2354 H   0  0  0  0  0  0  0  0  0  0  0  0
   -8.1760   -0.9581   -4.6282 H   0  0  0  0  0  0  0  0  0  0  0  0
   -7.3537    1.9156   -2.7526 H   0  0  0  0  0  0  0  0  0  0  0  0
   -5.9742    1.7834   -0.7069 H   0  0  0  0  0  0  0  0  0  0  0  0
   -1.5425    1.3905   -1.5596 H   0  0  0  0  0  0  0  0  0  0  0  0
   -1.4219   -2.2744    3.9299 H   0  0  0  0  0  0  0  0  0  0  0  0
    0.8490   -1.6995    4.8364 H   0  0  0  0  0  0  0  0  0  0  0  0
    0.3458    0.0029    4.9649 H   0  0  0  0  0  0  0  0  0  0  0  0
   -0.4659   -1.2170    5.9300 H   0  0  0  0  0  0  0  0  0  0  0  0
   -1.8487    0.5276    3.9569 H   0  0  0  0  0  0  0  0  0  0  0  0
    1.1673   -0.4188   -2.1829 H   0  0  0  0  0  0  0  0  0  0  0  0
    3.7364    0.2384   -3.7211 H   0  0  0  0  0  0  0  0  0  0  0  0
    2.6168   -1.0679   -4.1443 H   0  0  0  0  0  0  0  0  0  0  0  0
    3.4714   -1.1234   -2.6135 H   0  0  0  0  0  0  0  0  0  0  0  0
    1.6589    1.7649   -4.2827 H   0  0  0  0  0  0  0  0  0  0  0  0
    0.6997    0.2958   -4.5181 H   0  0  0  0  0  0  0  0  0  0  0  0
    0.1494    1.5280   -3.3931 H   0  0  0  0  0  0  0  0  0  0  0  0
  1  2  1  0
  2  3  1  0
  2  4  1  0
  4  5  1  0
  4  6  1  0
  6  7  2  0
  6  8  1  0
  8  9  1  0
  9 10  1  0
 10 11  2  0
 10 12  1  0
 12 13  1  0
 13 14  1  0
 14 15  1  0
 13 16  1  0
 16 17  2  0
 16 18  1  0
 18 19  1  0
 19 20  1  0
 20 21  2  0
 20 22  1  0
 22 23  1  0
 23 24  1  0
 24 25  1  0
 25 26  2  0
 26 27  1  0
 27 28  2  0
 28 29  1  0
 28 30  1  0
 30 31  2  0
 23 32  1  0
 32 33  2  0
 32 34  1  0
 19 35  1  0
 35 36  1  0
 35 37  1  0
  9 38  1  0
 38 39  1  0
 38 40  1  0
 31 25  1  0
  1 41  1  0
  1 42  1  0
  1 43  1  0
  2 44  1  0
  3 45  1  0
  3 46  1  0
  3 47  1  0
  4 48  1  1
  5 49  1  0
  5 50  1  0
  8 51  1  0
  9 52  1  6
 12 53  1  0
 13 54  1  1
 14 55  1  0
 14 56  1  0
 15 57  1  0
 18 58  1  0
 19 59  1  1
 22 60  1  0
 23 61  1  6
 24 62  1  0
 24 63  1  0
 26 64  1  0
 27 65  1  0
 29 66  1  0
 30 67  1  0
 31 68  1  0
 34 69  1  0
 35 70  1  6
 36 71  1  0
 36 72  1  0
 36 73  1  0
 37 74  1  0
 38 75  1  0
 39 76  1  0
 39 77  1  0
 39 78  1  0
 40 79  1  0
 40 80  1  0
 40 81  1  0
M  END
$$$$
VVCTY.sdf
     RDKit          3D

 81 81  0  0  0  0  0  0  0  0999 V2000
    8.7604    1.7336    0.9560 C   0  0  0  0  0  0  0  0  0  0  0  0
    8.5232    0.2436    0.6888 C   0  0  0  0  0  0  0  0  0  0  0  0
    9.1042   -0.1474   -0.6736 C   0  0  0  0  0  0  0  0  0  0  0  0
    7.0400   -0.1577    0.8695 C   0  0  2  0  0  0  0  0  0  0  0  0
    6.8851   -1.6379    0.9402 N   0  0  0  0  0  0  0  0  0  0  0  0
    6.0772    0.4139   -0.2108 C   0  0  0  0  0  0  0  0  0  0  0  0
    6.1966    1.5226   -0.7216 O   0  0  0  0  0  0  0  0  0  0  0  0
    5.0303   -0.4374   -0.5055 N   0  0  0  0  0  0  0  0  0  0  0  0
    3.8522    0.0276   -1.2222 C   0  0  2  0  0  0  0  0  0  0  0  0
    2.8146    0.5352   -0.1935 C   0  0  0  0  0  0  0  0  0  0  0  0
    2.8206    0.1920    0.9881 O   0  0  0  0  0  0  0  0  0  0  0  0
    1.8521    1.3758   -0.7186 N   0  0  0  0  0  0  0  0  0  0  0  0
    0.6386    1.6668    0.0460 C   0  0  1  0  0  0  0  0  0  0  0  0
    0.1250    3.0940   -0.1813 C   0  0  0  0  0  0  0  0  0  0  0  0
   -0.0768    3.5532   -1.9378 S   0  0  0  0  0  0  0  0  0  0  0  0
   -0.4249    0.6126   -0.3240 C   0  0  0  0  0  0  0  0  0  0  0  0
   -0.3330   -0.0971   -1.3257 O   0  0  0  0  0  0  0  0  0  0  0  0
   -1.4844    0.5271    0.5433 N   0  0  0  0  0  0  0  0  0  0  0  0
   -2.6262   -0.3566    0.3093 C   0  0  2  0  0  0  0  0  0  0  0  0
   -3.7555    0.0960    1.2586 C   0  0  0  0  0  0  0  0  0  0  0  0
   -3.5935    0.9978    2.0818 O   0  0  0  0  0  0  0  0  0  0  0  0
   -4.9486   -0.5678    1.0901 N   0  0  0  0  0  0  0  0  0  0  0  0
   -6.0789   -0.3398    1.9924 C   0  0  1  0  0  0  0  0  0  0  0  0
   -7.4182   -0.6624    1.3188 C   0  0  0  0  0  0  0  0  0  0  0  0
   -7.7809    0.3240    0.2327 C   0  0  0  0  0  0  0  0  0  0  0  0
   -8.4231    1.5276    0.5566 C   0  0  0  0  0  0  0  0  0  0  0  0
   -8.7426    2.4476   -0.4427 C   0  0  0  0  0  0  0  0  0  0  0  0
   -8.4174    2.1703   -1.7645 C   0  0  0  0  0  0  0  0  0  0  0  0
   -8.7454    3.0985   -2.7078 O   0  0  0  0  0  0  0  0  0  0  0  0
   -7.7765    0.9844   -2.1066 C   0  0  0  0  0  0  0  0  0  0  0  0
   -7.4583    0.0622   -1.1069 C   0  0  0  0  0  0  0  0  0  0  0  0
   -5.9234   -1.2458    3.2116 C   0  0  0  0  0  0  0  0  0  0  0  0
   -5.3232   -2.3094    3.2603 O   0  0  0  0  0  0  0  0  0  0  0  0
   -6.5783   -0.7853    4.2977 O   0  0  0  0  0  0  0  0  0  0  0  0
   -2.2880   -1.8552    0.4775 C   0  0  1  0  0  0  0  0  0  0  0  0
   -1.8339   -2.2265    1.8861 C   0  0  0  0  0  0  0  0  0  0  0  0
   -3.4282   -2.6574    0.1263 O   0  0  0  0  0  0  0  0  0  0  0  0
    3.2485   -1.0634   -2.1361 C   0  0  0  0  0  0  0  0  0  0  0  0
    2.8379   -2.3316   -1.3802 C   0  0  0  0  0  0  0  0  0  0  0  0
    4.2160   -1.4226   -3.2683 C   0  0  0  0  0  0  0  0  0  0  0  0
    8.3400    2.3690    0.1718 H   0  0  0  0  0  0  0  0  0  0  0  0
    8.3236    2.0339    1.9141 H   0  0  0  0  0  0  0  0  0  0  0  0
    9.8347    1.9445    1.0030 H   0  0  0  0  0  0  0  0  0  0  0  0
    9.1031   -0.2947    1.4521 H   0  0  0  0  0  0  0  0  0  0  0  0
    9.0335   -1.2255   -0.8457 H   0  0  0  0  0  0  0  0  0  0  0  0
   10.1651    0.1208   -0.7281 H   0  0  0  0  0  0  0  0  0  0  0  0
    8.5921    0.3636   -1.4950 H   0  0  0  0  0  0  0  0  0  0  0  0
    6.6789    0.2366    1.8277 H   0  0  0  0  0  0  0  0  0  0  0  0
    7.5457   -2.0025    1.6263 H   0  0  0  0  0  0  0  0  0  0  0  0
    7.1663   -2.0346    0.0425 H   0  0  0  0  0  0  0  0  0  0  0  0
    4.9057   -1.1654    0.1970 H   0  0  0  0  0  0  0  0  0  0  0  0
    4.1369    0.8897   -1.8391 H   0  0  0  0  0  0  0  0  0  0  0  0
    1.7097    1.3233   -1.7219 H   0  0  0  0  0  0  0  0  0  0  0  0
    0.8525    1.5454    1.1150 H   0  0  0  0  0  0  0  0  0  0  0  0
    0.8316    3.8092    0.2537 H   0  0  0  0  0  0  0  0  0  0  0  0
   -0.8402    3.2418    0.3135 H   0  0  0  0  0  0  0  0  0  0  0  0
    1.2325    3.6355   -2.2202 H   0  0  0  0  0  0  0  0  0  0  0  0
   -1.5709    1.1595    1.3355 H   0  0  0  0  0  0  0  0  0  0  0  0
   -2.9811   -0.1767   -0.7140 H   0  0  0  0  0  0  0  0  0  0  0  0
   -4.8599   -1.4990    0.6773 H   0  0  0  0  0  0  0  0  0  0  0  0
   -6.0432    0.7014    2.3348 H   0  0  0  0  0  0  0  0  0  0  0  0
   -8.2270   -0.6721    2.0617 H   0  0  0  0  0  0  0  0  0  0  0  0
   -7.4006   -1.6773    0.8985 H   0  0  0  0  0  0  0  0  0  0  0  0
   -8.6778    1.7594    1.5884 H   0  0  0  0  0  0  0  0  0  0  0  0
   -9.2402    3.3796   -0.1903 H   0  0  0  0  0  0  0  0  0  0  0  0
   -8.4331    2.7836   -3.5716 H   0  0  0  0  0  0  0  0  0  0  0  0
   -7.5161    0.7617   -3.1363 H   0  0  0  0  0  0  0  0  0  0  0  0
   -6.9510   -0.8605   -1.3801 H   0  0  0  0  0  0  0  0  0  0  0  0
   -6.3763   -1.4412    4.9981 H   0  0  0  0  0  0  0  0  0  0  0  0
   -1.4915   -2.1262   -0.2243 H   0  0  0  0  0  0  0  0  0  0  0  0
   -0.9461   -1.6618    2.1853 H   0  0  0  0  0  0  0  0  0  0  0  0
   -2.6252   -2.0545    2.6218 H   0  0  0  0  0  0  0  0  0  0  0  0
   -1.5934   -3.2942    1.9367 H   0  0  0  0  0  0  0  0  0  0  0  0
   -3.1402   -3.5884    0.1774 H   0  0  0  0  0  0  0  0  0  0  0  0
    2.3411   -0.6602   -2.6037 H   0  0  0  0  0  0  0  0  0  0  0  0
    3.6990   -2.8289   -0.9222 H   0  0  0  0  0  0  0  0  0  0  0  0
    2.3680   -3.0478   -2.0632 H   0  0  0  0  0  0  0  0  0  0  0  0
    2.1117   -2.1084   -0.5925 H   0  0  0  0  0  0  0  0  0  0  0  0
    4.4935   -0.5308   -3.8401 H   0  0  0  0  0  0  0  0  0  0  0  0
    5.1337   -1.8815   -2.8856 H   0  0  0  0  0  0  0  0  0  0  0  0
    3.7519   -2.1314   -3.9625 H   0  0  0  0  0  0  0  0  0  0  0  0
  1  2  1  0
  2  3  1  0
  2  4  1  0
  4  5  1  0
  4  6  1  0
  6  7  2  0
  6  8  1  0
  8  9  1  0
  9 10  1  0
 10 11  2  0
 10 12  1  0
 12 13  1  0
 13 14  1  0
 14 15  1  0
 13 16  1  0
 16 17  2  0
 16 18  1  0
 18 19  1  0
 19 20  1  0
 20 21  2  0
 20 22  1  0
 22 23  1  0
 23 24  1  0
 24 25  1  0
 25 26  2  0
 26 27  1  0
 27 28  2  0
 28 29  1  0
 28 30  1  0
 30 31  2  0
 23 32  1  0
 32 33  2  0
 32 34  1  0
 19 35  1  0
 35 36  1  0
 35 37  1  0
  9 38  1  0
 38 39  1  0
 38 40  1  0
 31 25  1  0
  1 41  1  0
  1 42  1  0
  1 43  1  0
  2 44  1  0
  3 45  1  0
  3 46  1  0
  3 47  1  0
  4 48  1  1
  5 49  1  0
  5 50  1  0
  8 51  1  0
  9 52  1  6
 12 53  1  0
 13 54  1  1
 14 55  1  0
 14 56  1  0
 15 57  1  0
 18 58  1  0
 19 59  1  6
 22 60  1  0
 23 61  1  1
 24 62  1  0
 24 63  1  0
 26 64  1  0
 27 65  1  0
 29 66  1  0
 30 67  1  0
 31 68  1  0
 34 69  1  0
 35 70  1  6
 36 71  1  0
 36 72  1  0
 36 73  1  0
 37 74  1  0
 38 75  1  0
 39 76  1  0
 39 77  1  0
 39 78  1  0
 40 79  1  0
 40 80  1  0
 40 81  1  0
M  END
$$$$
