PPY.sdf
  PyMOL2.5          3D                             0

 52 54  0  0  1  0  0  0  0  0999 V2000
    0.1561   -3.3381   -1.8449 O   0  0  0  0  0  0  0  0  0  0  0  0
    0.6248   -2.5388   -2.6427 C   0  0  0  0  0  0  0  0  0  0  0  0
    0.8955   -2.9192   -3.9078 O   0  0  0  0  0  0  0  0  0  0  0  0
    0.9707   -1.0748   -2.3657 C   0  0  2  0  0  0  0  0  0  0  0  0
    2.4865   -0.8304   -2.4246 C   0  0  0  0  0  0  0  0  0  0  0  0
    3.2775   -1.4483   -1.2914 C   0  0  0  0  0  0  0  0  0  0  0  0
    3.6961   -2.7842   -1.3560 C   0  0  0  0  0  0  0  0  0  0  0  0
    4.4049   -3.3531   -0.2970 C   0  0  0  0  0  0  0  0  0  0  0  0
    4.7028   -2.5892    0.8243 C   0  0  0  0  0  0  0  0  0  0  0  0
    5.3999   -3.1864    1.8320 O   0  0  0  0  0  0  0  0  0  0  0  0
    4.3025   -1.2605    0.9072 C   0  0  0  0  0  0  0  0  0  0  0  0
    3.5901   -0.6916   -0.1508 C   0  0  0  0  0  0  0  0  0  0  0  0
    0.3923   -0.6914   -1.0711 N   0  0  0  0  0  0  0  0  0  0  0  0
   -0.9170   -0.2499   -1.0029 C   0  0  0  0  0  0  0  0  0  0  0  0
   -1.5600    0.0536   -2.0029 O   0  0  0  0  0  0  0  0  0  0  0  0
   -1.4705   -0.1525    0.4377 C   0  0  2  0  0  0  0  0  0  0  0  0
   -1.7257   -1.5501    1.0118 C   0  0  0  0  0  0  0  0  0  0  0  0
   -3.1595   -1.8395    0.5784 C   0  0  0  0  0  0  0  0  0  0  0  0
   -3.8397   -0.4873    0.7202 C   0  0  0  0  0  0  0  0  0  0  0  0
   -2.7851    0.4877    0.5047 N   0  0  0  0  0  0  0  0  0  0  0  0
   -3.0825    1.8393    0.4757 C   0  0  0  0  0  0  0  0  0  0  0  0
   -4.2391    2.2267    0.6619 O   0  0  0  0  0  0  0  0  0  0  0  0
   -1.8954    2.8173    0.2727 C   0  0  2  0  0  0  0  0  0  0  0  0
   -1.1658    3.0741    1.5925 C   0  0  0  0  0  0  0  0  0  0  0  0
   -1.3757    4.5518    1.8894 C   0  0  0  0  0  0  0  0  0  0  0  0
   -2.5496    4.9425    1.0176 C   0  0  0  0  0  0  0  0  0  0  0  0
   -2.3484    4.1510   -0.1972 N   0  0  0  0  0  0  0  0  0  0  0  0
    0.5781   -3.8464   -3.9539 H   0  0  0  0  0  0  0  0  0  0  0  0
    0.4859   -0.4820   -3.1507 H   0  0  0  0  0  0  0  0  0  0  0  0
    2.6686    0.2528   -2.4213 H   0  0  0  0  0  0  0  0  0  0  0  0
    2.8952   -1.1923   -3.3770 H   0  0  0  0  0  0  0  0  0  0  0  0
    3.4801   -3.3946   -2.2301 H   0  0  0  0  0  0  0  0  0  0  0  0
    4.7277   -4.3894   -0.3487 H   0  0  0  0  0  0  0  0  0  0  0  0
    5.5717   -2.5294    2.5260 H   0  0  0  0  0  0  0  0  0  0  0  0
    4.5366   -0.6559    1.7777 H   0  0  0  0  0  0  0  0  0  0  0  0
    3.2830    0.3503   -0.0822 H   0  0  0  0  0  0  0  0  0  0  0  0
    0.7355   -1.2258   -0.2796 H   0  0  0  0  0  0  0  0  0  0  0  0
   -0.7489    0.4020    1.0448 H   0  0  0  0  0  0  0  0  0  0  0  0
   -1.6771   -1.5153    2.1072 H   0  0  0  0  0  0  0  0  0  0  0  0
   -1.0314   -2.3197    0.6642 H   0  0  0  0  0  0  0  0  0  0  0  0
   -3.1745   -2.1616   -0.4698 H   0  0  0  0  0  0  0  0  0  0  0  0
   -3.6390   -2.6163    1.1804 H   0  0  0  0  0  0  0  0  0  0  0  0
   -4.2325   -0.3439    1.7331 H   0  0  0  0  0  0  0  0  0  0  0  0
   -4.6527   -0.3446    0.0017 H   0  0  0  0  0  0  0  0  0  0  0  0
   -1.2221    2.4041   -0.4831 H   0  0  0  0  0  0  0  0  0  0  0  0
   -1.5671    2.4668    2.4118 H   0  0  0  0  0  0  0  0  0  0  0  0
   -0.0951    2.8581    1.5071 H   0  0  0  0  0  0  0  0  0  0  0  0
   -1.5645    4.7372    2.9510 H   0  0  0  0  0  0  0  0  0  0  0  0
   -0.4816    5.1181    1.6010 H   0  0  0  0  0  0  0  0  0  0  0  0
   -3.5013    4.6822    1.4937 H   0  0  0  0  0  0  0  0  0  0  0  0
   -2.5628    6.0148    0.8009 H   0  0  0  0  0  0  0  0  0  0  0  0
   -1.5973    4.5722   -0.7415 H   0  0  0  0  0  0  0  0  0  0  0  0
  1  2  2  0  0  0  0
  2  3  1  0  0  0  0
  2  4  1  0  0  0  0
  4  5  1  0  0  0  0
  5  6  1  0  0  0  0
  6  7  2  0  0  0  0
  7  8  1  0  0  0  0
  8  9  2  0  0  0  0
  9 10  1  0  0  0  0
  9 11  1  0  0  0  0
 11 12  2  0  0  0  0
  4 13  1  0  0  0  0
 13 14  1  0  0  0  0
 14 15  2  0  0  0  0
 14 16  1  0  0  0  0
 16 17  1  0  0  0  0
 17 18  1  0  0  0  0
 18 19  1  0  0  0  0
 19 20  1  0  0  0  0
 20 21  1  0  0  0  0
 21 22  2  0  0  0  0
 21 23  1  0  0  0  0
 23 24  1  0  0  0  0
 24 25  1  0  0  0  0
 25 26  1  0  0  0  0
 26 27  1  0  0  0  0
  6 12  1  0  0  0  0
 16 20  1  0  0  0  0
 23 27  1  0  0  0  0
  3 28  1  0  0  0  0
  4 29  1  0  0  0  0
  5 30  1  0  0  0  0
  5 31  1  0  0  0  0
  7 32  1  0  0  0  0
  8 33  1  0  0  0  0
 10 34  1  0  0  0  0
 11 35  1  0  0  0  0
 12 36  1  0  0  0  0
 13 37  1  0  0  0  0
 16 38  1  0  0  0  0
 17 39  1  0  0  0  0
 17 40  1  0  0  0  0
 18 41  1  0  0  0  0
 18 42  1  0  0  0  0
 19 43  1  0  0  0  0
 19 44  1  0  0  0  0
 23 45  1  0  0  0  0
 24 46  1  0  0  0  0
 24 47  1  0  0  0  0
 25 48  1  0  0  0  0
 25 49  1  0  0  0  0
 26 50  1  0  0  0  0
 26 51  1  0  0  0  0
 27 52  1  0  0  0  0
M  END
$$$$
PPY.sdf
  PyMOL2.5          3D                             0

 52 54  0  0  1  0  0  0  0  0999 V2000
    2.1353   -4.2621   -3.2741 O   0  0  0  0  0  0  0  0  0  0  0  0
    1.4265   -3.7333   -2.4311 C   0  0  0  0  0  0  0  0  0  0  0  0
    1.0300   -4.4402   -1.3464 O   0  0  0  0  0  0  0  0  0  0  0  0
    0.9238   -2.2879   -2.4467 C   0  0  2  0  0  0  0  0  0  0  0  0
    2.1081   -1.3088   -2.5470 C   0  0  0  0  0  0  0  0  0  0  0  0
    3.0412   -1.3326   -1.3542 C   0  0  0  0  0  0  0  0  0  0  0  0
    2.7910   -0.5180   -0.2407 C   0  0  0  0  0  0  0  0  0  0  0  0
    3.6345   -0.5595    0.8700 C   0  0  0  0  0  0  0  0  0  0  0  0
    4.7337   -1.4084    0.8689 C   0  0  0  0  0  0  0  0  0  0  0  0
    5.5330   -1.4170    1.9735 O   0  0  0  0  0  0  0  0  0  0  0  0
    5.0059   -2.2188   -0.2282 C   0  0  0  0  0  0  0  0  0  0  0  0
    4.1595   -2.1798   -1.3388 C   0  0  0  0  0  0  0  0  0  0  0  0
    0.0569   -2.0220   -1.2973 N   0  0  0  0  0  0  0  0  0  0  0  0
   -0.8007   -0.9460   -1.2620 C   0  0  0  0  0  0  0  0  0  0  0  0
   -0.9744   -0.2149   -2.2349 O   0  0  0  0  0  0  0  0  0  0  0  0
   -1.5663   -0.8006    0.0708 C   0  0  2  0  0  0  0  0  0  0  0  0
   -2.7823   -1.7263    0.0952 C   0  0  0  0  0  0  0  0  0  0  0  0
   -3.8809   -0.8655   -0.5245 C   0  0  0  0  0  0  0  0  0  0  0  0
   -3.5722    0.5304    0.0010 C   0  0  0  0  0  0  0  0  0  0  0  0
   -2.1337    0.5332    0.2138 N   0  0  0  0  0  0  0  0  0  0  0  0
   -1.3458    1.5992    0.5929 C   0  0  0  0  0  0  0  0  0  0  0  0
   -0.1518    1.4412    0.8578 O   0  0  0  0  0  0  0  0  0  0  0  0
   -2.0398    2.9738    0.7208 C   0  0  2  0  0  0  0  0  0  0  0  0
   -1.0591    4.1473    0.8130 C   0  0  0  0  0  0  0  0  0  0  0  0
   -1.2971    4.7497    2.1852 C   0  0  0  0  0  0  0  0  0  0  0  0
   -2.7365    4.3849    2.4714 C   0  0  0  0  0  0  0  0  0  0  0  0
   -2.8481    3.0095    1.9755 N   0  0  0  0  0  0  0  0  0  0  0  0
    1.4401   -5.3210   -1.4804 H   0  0  0  0  0  0  0  0  0  0  0  0
    0.2993   -2.1866   -3.3430 H   0  0  0  0  0  0  0  0  0  0  0  0
    1.7368   -0.2841   -2.6777 H   0  0  0  0  0  0  0  0  0  0  0  0
    2.6903   -1.5252   -3.4525 H   0  0  0  0  0  0  0  0  0  0  0  0
    1.9399    0.1616   -0.2294 H   0  0  0  0  0  0  0  0  0  0  0  0
    3.4334    0.0755    1.7284 H   0  0  0  0  0  0  0  0  0  0  0  0
    6.2825   -2.0111    1.8070 H   0  0  0  0  0  0  0  0  0  0  0  0
    5.8653   -2.8812   -0.2395 H   0  0  0  0  0  0  0  0  0  0  0  0
    4.3820   -2.8140   -2.1954 H   0  0  0  0  0  0  0  0  0  0  0  0
    0.2692   -2.5351   -0.4479 H   0  0  0  0  0  0  0  0  0  0  0  0
   -0.8790   -1.0086    0.8988 H   0  0  0  0  0  0  0  0  0  0  0  0
   -3.0487   -1.9632    1.1325 H   0  0  0  0  0  0  0  0  0  0  0  0
   -2.6392   -2.6658   -0.4467 H   0  0  0  0  0  0  0  0  0  0  0  0
   -3.7955   -0.8830   -1.6176 H   0  0  0  0  0  0  0  0  0  0  0  0
   -4.8868   -1.2013   -0.2578 H   0  0  0  0  0  0  0  0  0  0  0  0
   -4.0618    0.7017    0.9650 H   0  0  0  0  0  0  0  0  0  0  0  0
   -3.8701    1.3131   -0.7012 H   0  0  0  0  0  0  0  0  0  0  0  0
   -2.6894    3.1267   -0.1477 H   0  0  0  0  0  0  0  0  0  0  0  0
   -0.0072    3.8819    0.6738 H   0  0  0  0  0  0  0  0  0  0  0  0
   -1.3135    4.8912    0.0475 H   0  0  0  0  0  0  0  0  0  0  0  0
   -1.1261    5.8300    2.1999 H   0  0  0  0  0  0  0  0  0  0  0  0
   -0.6290    4.2853    2.9207 H   0  0  0  0  0  0  0  0  0  0  0  0
   -3.4280    5.0355    1.9239 H   0  0  0  0  0  0  0  0  0  0  0  0
   -2.9763    4.4483    3.5368 H   0  0  0  0  0  0  0  0  0  0  0  0
   -2.3785    2.4020    2.6527 H   0  0  0  0  0  0  0  0  0  0  0  0
  1  2  2  0  0  0  0
  2  3  1  0  0  0  0
  2  4  1  0  0  0  0
  4  5  1  0  0  0  0
  5  6  1  0  0  0  0
  6  7  2  0  0  0  0
  7  8  1  0  0  0  0
  8  9  2  0  0  0  0
  9 10  1  0  0  0  0
  9 11  1  0  0  0  0
 11 12  2  0  0  0  0
  4 13  1  0  0  0  0
 13 14  1  0  0  0  0
 14 15  2  0  0  0  0
 14 16  1  0  0  0  0
 16 17  1  0  0  0  0
 17 18  1  0  0  0  0
 18 19  1  0  0  0  0
 19 20  1  0  0  0  0
 20 21  1  0  0  0  0
 21 22  2  0  0  0  0
 21 23  1  0  0  0  0
 23 24  1  0  0  0  0
 24 25  1  0  0  0  0
 25 26  1  0  0  0  0
 26 27  1  0  0  0  0
  6 12  1  0  0  0  0
 16 20  1  0  0  0  0
 23 27  1  0  0  0  0
  3 28  1  0  0  0  0
  4 29  1  0  0  0  0
  5 30  1  0  0  0  0
  5 31  1  0  0  0  0
  7 32  1  0  0  0  0
  8 33  1  0  0  0  0
 10 34  1  0  0  0  0
 11 35  1  0  0  0  0
 12 36  1  0  0  0  0
 13 37  1  0  0  0  0
 16 38  1  0  0  0  0
 17 39  1  0  0  0  0
 17 40  1  0  0  0  0
 18 41  1  0  0  0  0
 18 42  1  0  0  0  0
 19 43  1  0  0  0  0
 19 44  1  0  0  0  0
 23 45  1  0  0  0  0
 24 46  1  0  0  0  0
 24 47  1  0  0  0  0
 25 48  1  0  0  0  0
 25 49  1  0  0  0  0
 26 50  1  0  0  0  0
 26 51  1  0  0  0  0
 27 52  1  0  0  0  0
M  END
$$$$
PPY.sdf
  PyMOL2.5          3D                             0

 52 54  0  0  1  0  0  0  0  0999 V2000
    0.3102   -3.2816   -1.7043 O   0  0  0  0  0  0  0  0  0  0  0  0
    1.0620   -2.3161   -1.7429 C   0  0  0  0  0  0  0  0  0  0  0  0
    1.8873   -2.1237   -2.7873 O   0  0  0  0  0  0  0  0  0  0  0  0
    1.1808   -1.2478   -0.6584 C   0  0  2  0  0  0  0  0  0  0  0  0
    2.1211   -1.7247    0.4544 C   0  0  0  0  0  0  0  0  0  0  0  0
    3.5704   -1.8047    0.0397 C   0  0  0  0  0  0  0  0  0  0  0  0
    4.1922   -3.0495   -0.1330 C   0  0  0  0  0  0  0  0  0  0  0  0
    5.5289   -3.1215   -0.5272 C   0  0  0  0  0  0  0  0  0  0  0  0
    6.2462   -1.9530   -0.7496 C   0  0  0  0  0  0  0  0  0  0  0  0
    7.5484   -2.0710   -1.1357 O   0  0  0  0  0  0  0  0  0  0  0  0
    5.6494   -0.7083   -0.5819 C   0  0  0  0  0  0  0  0  0  0  0  0
    4.3118   -0.6354   -0.1861 C   0  0  0  0  0  0  0  0  0  0  0  0
   -0.1757   -1.0463   -0.1207 N   0  0  0  0  0  0  0  0  0  0  0  0
   -1.0139   -0.1006   -0.6842 C   0  0  0  0  0  0  0  0  0  0  0  0
   -0.6195    0.7277   -1.4984 O   0  0  0  0  0  0  0  0  0  0  0  0
   -2.4703   -0.1835   -0.1836 C   0  0  2  0  0  0  0  0  0  0  0  0
   -3.1256   -1.4430   -0.7768 C   0  0  0  0  0  0  0  0  0  0  0  0
   -4.5675   -1.0288   -1.0244 C   0  0  0  0  0  0  0  0  0  0  0  0
   -4.4341    0.4264   -1.4323 C   0  0  0  0  0  0  0  0  0  0  0  0
   -3.3319    0.9179   -0.6250 N   0  0  0  0  0  0  0  0  0  0  0  0
   -3.2727    2.2585   -0.2838 C   0  0  0  0  0  0  0  0  0  0  0  0
   -4.1032    3.0484   -0.7465 O   0  0  0  0  0  0  0  0  0  0  0  0
   -2.1215    2.7418    0.6334 C   0  0  2  0  0  0  0  0  0  0  0  0
   -2.0916    2.1265    2.0302 C   0  0  0  0  0  0  0  0  0  0  0  0
   -1.7607    3.2734    2.9825 C   0  0  0  0  0  0  0  0  0  0  0  0
   -1.4008    4.4343    2.0775 C   0  0  0  0  0  0  0  0  0  0  0  0
   -2.2482    4.1874    0.9255 N   0  0  0  0  0  0  0  0  0  0  0  0
    1.7114   -2.8677   -3.3994 H   0  0  0  0  0  0  0  0  0  0  0  0
    1.5273   -0.3124   -1.1109 H   0  0  0  0  0  0  0  0  0  0  0  0
    1.7913   -2.7020    0.8327 H   0  0  0  0  0  0  0  0  0  0  0  0
    2.0517   -1.0438    1.3137 H   0  0  0  0  0  0  0  0  0  0  0  0
    3.6442   -3.9739    0.0355 H   0  0  0  0  0  0  0  0  0  0  0  0
    6.0096   -4.0865   -0.6612 H   0  0  0  0  0  0  0  0  0  0  0  0
    7.9148   -1.1806   -1.2630 H   0  0  0  0  0  0  0  0  0  0  0  0
    6.2029    0.2094   -0.7537 H   0  0  0  0  0  0  0  0  0  0  0  0
    3.8524    0.3427   -0.0573 H   0  0  0  0  0  0  0  0  0  0  0  0
   -0.6172   -1.8801    0.2528 H   0  0  0  0  0  0  0  0  0  0  0  0
   -2.4874   -0.2259    0.9084 H   0  0  0  0  0  0  0  0  0  0  0  0
   -2.6561   -1.7275   -1.7272 H   0  0  0  0  0  0  0  0  0  0  0  0
   -3.0527   -2.3024   -0.1027 H   0  0  0  0  0  0  0  0  0  0  0  0
   -5.0629   -1.6383   -1.7849 H   0  0  0  0  0  0  0  0  0  0  0  0
   -5.1394   -1.1082   -0.0919 H   0  0  0  0  0  0  0  0  0  0  0  0
   -5.3558    0.9908   -1.2633 H   0  0  0  0  0  0  0  0  0  0  0  0
   -4.1438    0.5207   -2.4846 H   0  0  0  0  0  0  0  0  0  0  0  0
   -1.1696    2.5822    0.1175 H   0  0  0  0  0  0  0  0  0  0  0  0
   -3.0453    1.6664    2.3119 H   0  0  0  0  0  0  0  0  0  0  0  0
   -1.3118    1.3598    2.0966 H   0  0  0  0  0  0  0  0  0  0  0  0
   -2.6440    3.5164    3.5858 H   0  0  0  0  0  0  0  0  0  0  0  0
   -0.9466    3.0173    3.6676 H   0  0  0  0  0  0  0  0  0  0  0  0
   -0.3415    4.4033    1.7977 H   0  0  0  0  0  0  0  0  0  0  0  0
   -1.6126    5.4001    2.5443 H   0  0  0  0  0  0  0  0  0  0  0  0
   -1.9904    4.7373    0.1084 H   0  0  0  0  0  0  0  0  0  0  0  0
  1  2  2  0  0  0  0
  2  3  1  0  0  0  0
  2  4  1  0  0  0  0
  4  5  1  0  0  0  0
  5  6  1  0  0  0  0
  6  7  2  0  0  0  0
  7  8  1  0  0  0  0
  8  9  2  0  0  0  0
  9 10  1  0  0  0  0
  9 11  1  0  0  0  0
 11 12  2  0  0  0  0
  4 13  1  0  0  0  0
 13 14  1  0  0  0  0
 14 15  2  0  0  0  0
 14 16  1  0  0  0  0
 16 17  1  0  0  0  0
 17 18  1  0  0  0  0
 18 19  1  0  0  0  0
 19 20  1  0  0  0  0
 20 21  1  0  0  0  0
 21 22  2  0  0  0  0
 21 23  1  0  0  0  0
 23 24  1  0  0  0  0
 24 25  1  0  0  0  0
 25 26  1  0  0  0  0
 26 27  1  0  0  0  0
  6 12  1  0  0  0  0
 16 20  1  0  0  0  0
 23 27  1  0  0  0  0
  3 28  1  0  0  0  0
  4 29  1  0  0  0  0
  5 30  1  0  0  0  0
  5 31  1  0  0  0  0
  7 32  1  0  0  0  0
  8 33  1  0  0  0  0
 10 34  1  0  0  0  0
 11 35  1  0  0  0  0
 12 36  1  0  0  0  0
 13 37  1  0  0  0  0
 16 38  1  0  0  0  0
 17 39  1  0  0  0  0
 17 40  1  0  0  0  0
 18 41  1  0  0  0  0
 18 42  1  0  0  0  0
 19 43  1  0  0  0  0
 19 44  1  0  0  0  0
 23 45  1  0  0  0  0
 24 46  1  0  0  0  0
 24 47  1  0  0  0  0
 25 48  1  0  0  0  0
 25 49  1  0  0  0  0
 26 50  1  0  0  0  0
 26 51  1  0  0  0  0
 27 52  1  0  0  0  0
M  END
$$$$
PPY.sdf
  PyMOL2.5          3D                             0

 52 54  0  0  1  0  0  0  0  0999 V2000
    2.0526   -3.1376    2.9678 O   0  0  0  0  0  0  0  0  0  0  0  0
    2.3882   -3.2720    1.8003 C   0  0  0  0  0  0  0  0  0  0  0  0
    3.2563   -4.2486    1.4572 O   0  0  0  0  0  0  0  0  0  0  0  0
    1.9730   -2.4039    0.6122 C   0  0  2  0  0  0  0  0  0  0  0  0
    3.0838   -1.3755    0.3693 C   0  0  0  0  0  0  0  0  0  0  0  0
    2.8413   -0.4934   -0.8324 C   0  0  0  0  0  0  0  0  0  0  0  0
    2.4081    0.8290   -0.6623 C   0  0  0  0  0  0  0  0  0  0  0  0
    2.1909    1.6516   -1.7682 C   0  0  0  0  0  0  0  0  0  0  0  0
    2.3938    1.1474   -3.0476 C   0  0  0  0  0  0  0  0  0  0  0  0
    2.1870    1.9178   -4.1537 O   0  0  0  0  0  0  0  0  0  0  0  0
    2.8136   -0.1633   -3.2367 C   0  0  0  0  0  0  0  0  0  0  0  0
    3.0393   -0.9843   -2.1305 C   0  0  0  0  0  0  0  0  0  0  0  0
    0.6918   -1.7696    0.9082 N   0  0  0  0  0  0  0  0  0  0  0  0
   -0.4898   -2.4691    0.8424 C   0  0  0  0  0  0  0  0  0  0  0  0
   -0.5283   -3.6430    0.4764 O   0  0  0  0  0  0  0  0  0  0  0  0
   -1.7203   -1.7193    1.4083 C   0  0  2  0  0  0  0  0  0  0  0  0
   -3.0107   -2.4974    1.1120 C   0  0  0  0  0  0  0  0  0  0  0  0
   -4.0677   -1.4119    1.0080 C   0  0  0  0  0  0  0  0  0  0  0  0
   -3.3190   -0.2872    0.3143 C   0  0  0  0  0  0  0  0  0  0  0  0
   -1.9639   -0.3803    0.8361 N   0  0  0  0  0  0  0  0  0  0  0  0
   -1.1557    0.6996    1.1490 C   0  0  0  0  0  0  0  0  0  0  0  0
   -0.1940    0.5593    1.9134 O   0  0  0  0  0  0  0  0  0  0  0  0
   -1.5261    2.0765    0.5491 C   0  0  2  0  0  0  0  0  0  0  0  0
   -1.6887    2.1105   -0.9653 C   0  0  0  0  0  0  0  0  0  0  0  0
   -1.2587    3.5150   -1.3832 C   0  0  0  0  0  0  0  0  0  0  0  0
   -0.7621    4.1790   -0.1101 C   0  0  0  0  0  0  0  0  0  0  0  0
   -0.4333    3.0535    0.7493 N   0  0  0  0  0  0  0  0  0  0  0  0
    3.4014   -4.7340    2.2965 H   0  0  0  0  0  0  0  0  0  0  0  0
    1.8307   -3.0578   -0.2567 H   0  0  0  0  0  0  0  0  0  0  0  0
    4.0479   -1.8838    0.2325 H   0  0  0  0  0  0  0  0  0  0  0  0
    3.2148   -0.7478    1.2616 H   0  0  0  0  0  0  0  0  0  0  0  0
    2.2280    1.2293    0.3346 H   0  0  0  0  0  0  0  0  0  0  0  0
    1.8594    2.6715   -1.6042 H   0  0  0  0  0  0  0  0  0  0  0  0
    1.9277    2.8057   -3.8587 H   0  0  0  0  0  0  0  0  0  0  0  0
    2.9667   -0.5452   -4.2417 H   0  0  0  0  0  0  0  0  0  0  0  0
    3.3707   -2.0078   -2.2898 H   0  0  0  0  0  0  0  0  0  0  0  0
    0.6888   -0.9179    1.4737 H   0  0  0  0  0  0  0  0  0  0  0  0
   -1.5840   -1.6078    2.4914 H   0  0  0  0  0  0  0  0  0  0  0  0
   -3.2384   -3.2312    1.8913 H   0  0  0  0  0  0  0  0  0  0  0  0
   -2.9501   -3.0329    0.1564 H   0  0  0  0  0  0  0  0  0  0  0  0
   -4.3774   -1.0977    2.0121 H   0  0  0  0  0  0  0  0  0  0  0  0
   -4.9564   -1.7307    0.4567 H   0  0  0  0  0  0  0  0  0  0  0  0
   -3.2708   -0.4581   -0.7665 H   0  0  0  0  0  0  0  0  0  0  0  0
   -3.7801    0.6824    0.5136 H   0  0  0  0  0  0  0  0  0  0  0  0
   -2.4276    2.4424    1.0558 H   0  0  0  0  0  0  0  0  0  0  0  0
   -2.7237    1.9281   -1.2704 H   0  0  0  0  0  0  0  0  0  0  0  0
   -1.0612    1.3592   -1.4598 H   0  0  0  0  0  0  0  0  0  0  0  0
   -2.0909    4.0757   -1.8215 H   0  0  0  0  0  0  0  0  0  0  0  0
   -0.4651    3.4546   -2.1359 H   0  0  0  0  0  0  0  0  0  0  0  0
    0.1058    4.8186   -0.2934 H   0  0  0  0  0  0  0  0  0  0  0  0
   -1.5530    4.7894    0.3411 H   0  0  0  0  0  0  0  0  0  0  0  0
   -0.3646    3.3132    1.7320 H   0  0  0  0  0  0  0  0  0  0  0  0
  1  2  2  0  0  0  0
  2  3  1  0  0  0  0
  2  4  1  0  0  0  0
  4  5  1  0  0  0  0
  5  6  1  0  0  0  0
  6  7  2  0  0  0  0
  7  8  1  0  0  0  0
  8  9  2  0  0  0  0
  9 10  1  0  0  0  0
  9 11  1  0  0  0  0
 11 12  2  0  0  0  0
  4 13  1  0  0  0  0
 13 14  1  0  0  0  0
 14 15  2  0  0  0  0
 14 16  1  0  0  0  0
 16 17  1  0  0  0  0
 17 18  1  0  0  0  0
 18 19  1  0  0  0  0
 19 20  1  0  0  0  0
 20 21  1  0  0  0  0
 21 22  2  0  0  0  0
 21 23  1  0  0  0  0
 23 24  1  0  0  0  0
 24 25  1  0  0  0  0
 25 26  1  0  0  0  0
 26 27  1  0  0  0  0
  6 12  1  0  0  0  0
 16 20  1  0  0  0  0
 23 27  1  0  0  0  0
  3 28  1  0  0  0  0
  4 29  1  0  0  0  0
  5 30  1  0  0  0  0
  5 31  1  0  0  0  0
  7 32  1  0  0  0  0
  8 33  1  0  0  0  0
 10 34  1  0  0  0  0
 11 35  1  0  0  0  0
 12 36  1  0  0  0  0
 13 37  1  0  0  0  0
 16 38  1  0  0  0  0
 17 39  1  0  0  0  0
 17 40  1  0  0  0  0
 18 41  1  0  0  0  0
 18 42  1  0  0  0  0
 19 43  1  0  0  0  0
 19 44  1  0  0  0  0
 23 45  1  0  0  0  0
 24 46  1  0  0  0  0
 24 47  1  0  0  0  0
 25 48  1  0  0  0  0
 25 49  1  0  0  0  0
 26 50  1  0  0  0  0
 26 51  1  0  0  0  0
 27 52  1  0  0  0  0
M  END
$$$$
PPY.sdf
  PyMOL2.5          3D                             0

 52 54  0  0  1  0  0  0  0  0999 V2000
    3.6099   -3.7260    0.6669 O   0  0  0  0  0  0  0  0  0  0  0  0
    2.5430   -3.2482    1.0165 C   0  0  0  0  0  0  0  0  0  0  0  0
    1.9582   -3.6973    2.1558 O   0  0  0  0  0  0  0  0  0  0  0  0
    1.7516   -2.1349    0.3193 C   0  0  2  0  0  0  0  0  0  0  0  0
    2.6079   -0.8588    0.2509 C   0  0  0  0  0  0  0  0  0  0  0  0
    3.3830   -0.7513   -1.0426 C   0  0  0  0  0  0  0  0  0  0  0  0
    2.7560   -0.2499   -2.1938 C   0  0  0  0  0  0  0  0  0  0  0  0
    3.4544   -0.1559   -3.3991 C   0  0  0  0  0  0  0  0  0  0  0  0
    4.7814   -0.5682   -3.4533 C   0  0  0  0  0  0  0  0  0  0  0  0
    5.5008   -0.4947   -4.6096 O   0  0  0  0  0  0  0  0  0  0  0  0
    5.4165   -1.0728   -2.3252 C   0  0  0  0  0  0  0  0  0  0  0  0
    4.7187   -1.1660   -1.1199 C   0  0  0  0  0  0  0  0  0  0  0  0
    0.5003   -1.9038    1.0511 N   0  0  0  0  0  0  0  0  0  0  0  0
   -0.5366   -1.1727    0.5186 C   0  0  0  0  0  0  0  0  0  0  0  0
   -0.5042   -0.7168   -0.6231 O   0  0  0  0  0  0  0  0  0  0  0  0
   -1.7636   -1.0584    1.4434 C   0  0  2  0  0  0  0  0  0  0  0  0
   -2.7190   -2.2257    1.1684 C   0  0  0  0  0  0  0  0  0  0  0  0
   -4.1035   -1.5869    1.1890 C   0  0  0  0  0  0  0  0  0  0  0  0
   -3.8557   -0.1941    0.6335 C   0  0  0  0  0  0  0  0  0  0  0  0
   -2.5398    0.1400    1.1418 N   0  0  0  0  0  0  0  0  0  0  0  0
   -2.0433    1.3859    1.4545 C   0  0  0  0  0  0  0  0  0  0  0  0
   -0.9790    1.5105    2.0697 O   0  0  0  0  0  0  0  0  0  0  0  0
   -2.8747    2.6163    1.0230 C   0  0  2  0  0  0  0  0  0  0  0  0
   -2.9944    2.7388   -0.4964 C   0  0  0  0  0  0  0  0  0  0  0  0
   -2.4044    4.0986   -0.8321 C   0  0  0  0  0  0  0  0  0  0  0  0
   -1.4633    4.3669    0.3202 C   0  0  0  0  0  0  0  0  0  0  0  0
   -2.2141    3.8698    1.4726 N   0  0  0  0  0  0  0  0  0  0  0  0
    2.5811   -4.3900    2.4671 H   0  0  0  0  0  0  0  0  0  0  0  0
    1.4679   -2.5011   -0.6746 H   0  0  0  0  0  0  0  0  0  0  0  0
    1.9852    0.0413    0.3388 H   0  0  0  0  0  0  0  0  0  0  0  0
    3.3019   -0.8066    1.1004 H   0  0  0  0  0  0  0  0  0  0  0  0
    1.7147    0.0688   -2.1537 H   0  0  0  0  0  0  0  0  0  0  0  0
    2.9478    0.2364   -4.2747 H   0  0  0  0  0  0  0  0  0  0  0  0
    4.9295   -0.1237   -5.3014 H   0  0  0  0  0  0  0  0  0  0  0  0
    6.4516   -1.3964   -2.3833 H   0  0  0  0  0  0  0  0  0  0  0  0
    5.2253   -1.5715   -0.2468 H   0  0  0  0  0  0  0  0  0  0  0  0
    0.4577   -2.2524    2.0037 H   0  0  0  0  0  0  0  0  0  0  0  0
   -1.4521   -1.0229    2.4935 H   0  0  0  0  0  0  0  0  0  0  0  0
   -2.5346   -2.6753    0.1848 H   0  0  0  0  0  0  0  0  0  0  0  0
   -2.6211   -3.0199    1.9153 H   0  0  0  0  0  0  0  0  0  0  0  0
   -4.4597   -1.5193    2.2242 H   0  0  0  0  0  0  0  0  0  0  0  0
   -4.8408   -2.1487    0.6093 H   0  0  0  0  0  0  0  0  0  0  0  0
   -3.8006   -0.2088   -0.4602 H   0  0  0  0  0  0  0  0  0  0  0  0
   -4.6167    0.5221    0.9502 H   0  0  0  0  0  0  0  0  0  0  0  0
   -3.8544    2.5591    1.5073 H   0  0  0  0  0  0  0  0  0  0  0  0
   -2.4294    1.9571   -1.0171 H   0  0  0  0  0  0  0  0  0  0  0  0
   -4.0364    2.6808   -0.8283 H   0  0  0  0  0  0  0  0  0  0  0  0
   -1.8948    4.1011   -1.8001 H   0  0  0  0  0  0  0  0  0  0  0  0
   -3.1990    4.8544   -0.8634 H   0  0  0  0  0  0  0  0  0  0  0  0
   -1.2283    5.4298    0.4229 H   0  0  0  0  0  0  0  0  0  0  0  0
   -0.5262    3.8108    0.1985 H   0  0  0  0  0  0  0  0  0  0  0  0
   -1.5550    3.6304    2.2212 H   0  0  0  0  0  0  0  0  0  0  0  0
  1  2  2  0  0  0  0
  2  3  1  0  0  0  0
  2  4  1  0  0  0  0
  4  5  1  0  0  0  0
  5  6  1  0  0  0  0
  6  7  2  0  0  0  0
  7  8  1  0  0  0  0
  8  9  2  0  0  0  0
  9 10  1  0  0  0  0
  9 11  1  0  0  0  0
 11 12  2  0  0  0  0
  4 13  1  0  0  0  0
 13 14  1  0  0  0  0
 14 15  2  0  0  0  0
 14 16  1  0  0  0  0
 16 17  1  0  0  0  0
 17 18  1  0  0  0  0
 18 19  1  0  0  0  0
 19 20  1  0  0  0  0
 20 21  1  0  0  0  0
 21 22  2  0  0  0  0
 21 23  1  0  0  0  0
 23 24  1  0  0  0  0
 24 25  1  0  0  0  0
 25 26  1  0  0  0  0
 26 27  1  0  0  0  0
  6 12  1  0  0  0  0
 16 20  1  0  0  0  0
 23 27  1  0  0  0  0
  3 28  1  0  0  0  0
  4 29  1  0  0  0  0
  5 30  1  0  0  0  0
  5 31  1  0  0  0  0
  7 32  1  0  0  0  0
  8 33  1  0  0  0  0
 10 34  1  0  0  0  0
 11 35  1  0  0  0  0
 12 36  1  0  0  0  0
 13 37  1  0  0  0  0
 16 38  1  0  0  0  0
 17 39  1  0  0  0  0
 17 40  1  0  0  0  0
 18 41  1  0  0  0  0
 18 42  1  0  0  0  0
 19 43  1  0  0  0  0
 19 44  1  0  0  0  0
 23 45  1  0  0  0  0
 24 46  1  0  0  0  0
 24 47  1  0  0  0  0
 25 48  1  0  0  0  0
 25 49  1  0  0  0  0
 26 50  1  0  0  0  0
 26 51  1  0  0  0  0
 27 52  1  0  0  0  0
M  END
$$$$
PPY.sdf
  PyMOL2.5          3D                             0

 52 54  0  0  1  0  0  0  0  0999 V2000
    2.8382    1.4370    0.8433 O   0  0  0  0  0  0  0  0  0  0  0  0
    2.6574    0.7379   -0.1464 C   0  0  0  0  0  0  0  0  0  0  0  0
    2.8939    1.2476   -1.3666 O   0  0  0  0  0  0  0  0  0  0  0  0
    2.2137   -0.7276   -0.1013 C   0  0  2  0  0  0  0  0  0  0  0  0
    1.8091   -1.3480   -1.4510 C   0  0  0  0  0  0  0  0  0  0  0  0
    2.9811   -1.9605   -2.1907 C   0  0  0  0  0  0  0  0  0  0  0  0
    3.4864   -3.2108   -1.8034 C   0  0  0  0  0  0  0  0  0  0  0  0
    4.5735   -3.7722   -2.4745 C   0  0  0  0  0  0  0  0  0  0  0  0
    5.1568   -3.0883   -3.5335 C   0  0  0  0  0  0  0  0  0  0  0  0
    6.2166   -3.6731   -4.1610 O   0  0  0  0  0  0  0  0  0  0  0  0
    4.6699   -1.8492   -3.9355 C   0  0  0  0  0  0  0  0  0  0  0  0
    3.5820   -1.2874   -3.2634 C   0  0  0  0  0  0  0  0  0  0  0  0
    1.1782   -0.8502    0.9407 N   0  0  0  0  0  0  0  0  0  0  0  0
   -0.1178   -0.4115    0.7230 C   0  0  0  0  0  0  0  0  0  0  0  0
   -0.5190   -0.0476   -0.3800 O   0  0  0  0  0  0  0  0  0  0  0  0
   -1.0281   -0.5208    1.9688 C   0  0  2  0  0  0  0  0  0  0  0  0
   -1.5167   -1.9588    2.1463 C   0  0  0  0  0  0  0  0  0  0  0  0
   -2.7841   -1.9973    1.2949 C   0  0  0  0  0  0  0  0  0  0  0  0
   -3.3885   -0.6154    1.5027 C   0  0  0  0  0  0  0  0  0  0  0  0
   -2.2549    0.2458    1.7915 N   0  0  0  0  0  0  0  0  0  0  0  0
   -2.2598    1.6138    1.9872 C   0  0  0  0  0  0  0  0  0  0  0  0
   -1.2324    2.1942    2.3439 O   0  0  0  0  0  0  0  0  0  0  0  0
   -3.5908    2.3459    1.6807 C   0  0  2  0  0  0  0  0  0  0  0  0
   -3.7167    2.6576    0.1985 C   0  0  0  0  0  0  0  0  0  0  0  0
   -3.0578    4.0209    0.0397 C   0  0  0  0  0  0  0  0  0  0  0  0
   -2.9396    4.5881    1.4470 C   0  0  0  0  0  0  0  0  0  0  0  0
   -3.6825    3.6771    2.3269 N   0  0  0  0  0  0  0  0  0  0  0  0
    3.1232    2.1832   -1.1831 H   0  0  0  0  0  0  0  0  0  0  0  0
    3.0737   -1.2763    0.3039 H   0  0  0  0  0  0  0  0  0  0  0  0
    1.3097   -0.6161   -2.0977 H   0  0  0  0  0  0  0  0  0  0  0  0
    1.0758   -2.1509   -1.2938 H   0  0  0  0  0  0  0  0  0  0  0  0
    3.0340   -3.7581   -0.9795 H   0  0  0  0  0  0  0  0  0  0  0  0
    4.9624   -4.7409   -2.1741 H   0  0  0  0  0  0  0  0  0  0  0  0
    6.5067   -3.0905   -4.8818 H   0  0  0  0  0  0  0  0  0  0  0  0
    5.1181   -1.3082   -4.7625 H   0  0  0  0  0  0  0  0  0  0  0  0
    3.2044   -0.3175   -3.5820 H   0  0  0  0  0  0  0  0  0  0  0  0
    1.5172   -0.7222    1.8884 H   0  0  0  0  0  0  0  0  0  0  0  0
   -0.4776   -0.1643    2.8466 H   0  0  0  0  0  0  0  0  0  0  0  0
   -0.7917   -2.7186    1.8403 H   0  0  0  0  0  0  0  0  0  0  0  0
   -1.7795   -2.1355    3.1965 H   0  0  0  0  0  0  0  0  0  0  0  0
   -3.4667   -2.8015    1.5830 H   0  0  0  0  0  0  0  0  0  0  0  0
   -2.5201   -2.1375    0.2398 H   0  0  0  0  0  0  0  0  0  0  0  0
   -3.9381   -0.2624    0.6263 H   0  0  0  0  0  0  0  0  0  0  0  0
   -4.0534   -0.6015    2.3729 H   0  0  0  0  0  0  0  0  0  0  0  0
   -4.4221    1.7306    2.0379 H   0  0  0  0  0  0  0  0  0  0  0  0
   -3.2465    1.9133   -0.4519 H   0  0  0  0  0  0  0  0  0  0  0  0
   -4.7749    2.7311   -0.0813 H   0  0  0  0  0  0  0  0  0  0  0  0
   -2.0654    3.9199   -0.4139 H   0  0  0  0  0  0  0  0  0  0  0  0
   -3.6599    4.6660   -0.6088 H   0  0  0  0  0  0  0  0  0  0  0  0
   -1.8903    4.6442    1.7560 H   0  0  0  0  0  0  0  0  0  0  0  0
   -3.3467    5.6028    1.5072 H   0  0  0  0  0  0  0  0  0  0  0  0
   -4.6606    3.9639    2.3180 H   0  0  0  0  0  0  0  0  0  0  0  0
  1  2  2  0  0  0  0
  2  3  1  0  0  0  0
  2  4  1  0  0  0  0
  4  5  1  0  0  0  0
  5  6  1  0  0  0  0
  6  7  2  0  0  0  0
  7  8  1  0  0  0  0
  8  9  2  0  0  0  0
  9 10  1  0  0  0  0
  9 11  1  0  0  0  0
 11 12  2  0  0  0  0
  4 13  1  0  0  0  0
 13 14  1  0  0  0  0
 14 15  2  0  0  0  0
 14 16  1  0  0  0  0
 16 17  1  0  0  0  0
 17 18  1  0  0  0  0
 18 19  1  0  0  0  0
 19 20  1  0  0  0  0
 20 21  1  0  0  0  0
 21 22  2  0  0  0  0
 21 23  1  0  0  0  0
 23 24  1  0  0  0  0
 24 25  1  0  0  0  0
 25 26  1  0  0  0  0
 26 27  1  0  0  0  0
  6 12  1  0  0  0  0
 16 20  1  0  0  0  0
 23 27  1  0  0  0  0
  3 28  1  0  0  0  0
  4 29  1  0  0  0  0
  5 30  1  0  0  0  0
  5 31  1  0  0  0  0
  7 32  1  0  0  0  0
  8 33  1  0  0  0  0
 10 34  1  0  0  0  0
 11 35  1  0  0  0  0
 12 36  1  0  0  0  0
 13 37  1  0  0  0  0
 16 38  1  0  0  0  0
 17 39  1  0  0  0  0
 17 40  1  0  0  0  0
 18 41  1  0  0  0  0
 18 42  1  0  0  0  0
 19 43  1  0  0  0  0
 19 44  1  0  0  0  0
 23 45  1  0  0  0  0
 24 46  1  0  0  0  0
 24 47  1  0  0  0  0
 25 48  1  0  0  0  0
 25 49  1  0  0  0  0
 26 50  1  0  0  0  0
 26 51  1  0  0  0  0
 27 52  1  0  0  0  0
M  END
$$$$
PPY.sdf
  PyMOL2.5          3D                             0

 52 54  0  0  1  0  0  0  0  0999 V2000
    2.6586   -3.1503    2.4148 O   0  0  0  0  0  0  0  0  0  0  0  0
    2.3344   -3.4427    1.2724 C   0  0  0  0  0  0  0  0  0  0  0  0
    2.5057   -4.6971    0.8112 O   0  0  0  0  0  0  0  0  0  0  0  0
    1.7721   -2.4880    0.2243 C   0  0  2  0  0  0  0  0  0  0  0  0
    2.9026   -2.0535   -0.7211 C   0  0  0  0  0  0  0  0  0  0  0  0
    2.5446   -0.9479   -1.6948 C   0  0  0  0  0  0  0  0  0  0  0  0
    3.4776    0.0676   -1.9613 C   0  0  0  0  0  0  0  0  0  0  0  0
    3.1750    1.1029   -2.8498 C   0  0  0  0  0  0  0  0  0  0  0  0
    1.9376    1.1217   -3.4821 C   0  0  0  0  0  0  0  0  0  0  0  0
    1.5976    2.1166   -4.3492 O   0  0  0  0  0  0  0  0  0  0  0  0
    1.0072    0.1183   -3.2484 C   0  0  0  0  0  0  0  0  0  0  0  0
    1.3132   -0.9208   -2.3668 C   0  0  0  0  0  0  0  0  0  0  0  0
    1.1834   -1.3402    0.9220 N   0  0  0  0  0  0  0  0  0  0  0  0
   -0.1712   -1.2743    1.1696 C   0  0  0  0  0  0  0  0  0  0  0  0
   -0.9521   -2.1520    0.8154 O   0  0  0  0  0  0  0  0  0  0  0  0
   -0.6027    0.0103    1.9053 C   0  0  2  0  0  0  0  0  0  0  0  0
   -0.3217   -0.1133    3.4049 C   0  0  0  0  0  0  0  0  0  0  0  0
   -1.6207   -0.6987    3.9504 C   0  0  0  0  0  0  0  0  0  0  0  0
   -2.6878   -0.0176    3.1075 C   0  0  0  0  0  0  0  0  0  0  0  0
   -2.0439    0.2475    1.8340 N   0  0  0  0  0  0  0  0  0  0  0  0
   -2.7748    0.7048    0.7573 C   0  0  0  0  0  0  0  0  0  0  0  0
   -3.9892    0.9124    0.8541 O   0  0  0  0  0  0  0  0  0  0  0  0
   -2.0310    0.9439   -0.5819 C   0  0  2  0  0  0  0  0  0  0  0  0
   -1.1625    2.2012   -0.5544 C   0  0  0  0  0  0  0  0  0  0  0  0
   -1.6596    3.0524   -1.7104 C   0  0  0  0  0  0  0  0  0  0  0  0
   -3.0924    2.6033   -1.8831 C   0  0  0  0  0  0  0  0  0  0  0  0
   -3.0058    1.1584   -1.6847 N   0  0  0  0  0  0  0  0  0  0  0  0
    2.8379   -5.2027    1.5831 H   0  0  0  0  0  0  0  0  0  0  0  0
    0.9833   -3.0157   -0.3232 H   0  0  0  0  0  0  0  0  0  0  0  0
    3.2553   -2.9173   -1.2993 H   0  0  0  0  0  0  0  0  0  0  0  0
    3.7577   -1.7247   -0.1142 H   0  0  0  0  0  0  0  0  0  0  0  0
    4.4510    0.0626   -1.4750 H   0  0  0  0  0  0  0  0  0  0  0  0
    3.9118    1.8783   -3.0332 H   0  0  0  0  0  0  0  0  0  0  0  0
    2.3516    2.7206   -4.4425 H   0  0  0  0  0  0  0  0  0  0  0  0
    0.0420    0.1427   -3.7486 H   0  0  0  0  0  0  0  0  0  0  0  0
    0.5667   -1.6967   -2.2093 H   0  0  0  0  0  0  0  0  0  0  0  0
    1.8088   -0.7706    1.4792 H   0  0  0  0  0  0  0  0  0  0  0  0
   -0.0618    0.8568    1.4740 H   0  0  0  0  0  0  0  0  0  0  0  0
   -0.1630    0.8827    3.8363 H   0  0  0  0  0  0  0  0  0  0  0  0
    0.5444   -0.7351    3.6497 H   0  0  0  0  0  0  0  0  0  0  0  0
   -1.7531   -0.5199    5.0210 H   0  0  0  0  0  0  0  0  0  0  0  0
   -1.6410   -1.7818    3.7801 H   0  0  0  0  0  0  0  0  0  0  0  0
   -2.9844    0.9440    3.5411 H   0  0  0  0  0  0  0  0  0  0  0  0
   -3.5804   -0.6362    2.9737 H   0  0  0  0  0  0  0  0  0  0  0  0
   -1.4464    0.0539   -0.8270 H   0  0  0  0  0  0  0  0  0  0  0  0
   -0.1004    1.9680   -0.6828 H   0  0  0  0  0  0  0  0  0  0  0  0
   -1.2776    2.7531    0.3858 H   0  0  0  0  0  0  0  0  0  0  0  0
   -1.0773    2.8351   -2.6143 H   0  0  0  0  0  0  0  0  0  0  0  0
   -1.5765    4.1230   -1.5018 H   0  0  0  0  0  0  0  0  0  0  0  0
   -3.4860    2.8495   -2.8730 H   0  0  0  0  0  0  0  0  0  0  0  0
   -3.7396    3.0607   -1.1256 H   0  0  0  0  0  0  0  0  0  0  0  0
   -3.9174    0.8049   -1.3755 H   0  0  0  0  0  0  0  0  0  0  0  0
  1  2  2  0  0  0  0
  2  3  1  0  0  0  0
  2  4  1  0  0  0  0
  4  5  1  0  0  0  0
  5  6  1  0  0  0  0
  6  7  2  0  0  0  0
  7  8  1  0  0  0  0
  8  9  2  0  0  0  0
  9 10  1  0  0  0  0
  9 11  1  0  0  0  0
 11 12  2  0  0  0  0
  4 13  1  0  0  0  0
 13 14  1  0  0  0  0
 14 15  2  0  0  0  0
 14 16  1  0  0  0  0
 16 17  1  0  0  0  0
 17 18  1  0  0  0  0
 18 19  1  0  0  0  0
 19 20  1  0  0  0  0
 20 21  1  0  0  0  0
 21 22  2  0  0  0  0
 21 23  1  0  0  0  0
 23 24  1  0  0  0  0
 24 25  1  0  0  0  0
 25 26  1  0  0  0  0
 26 27  1  0  0  0  0
  6 12  1  0  0  0  0
 16 20  1  0  0  0  0
 23 27  1  0  0  0  0
  3 28  1  0  0  0  0
  4 29  1  0  0  0  0
  5 30  1  0  0  0  0
  5 31  1  0  0  0  0
  7 32  1  0  0  0  0
  8 33  1  0  0  0  0
 10 34  1  0  0  0  0
 11 35  1  0  0  0  0
 12 36  1  0  0  0  0
 13 37  1  0  0  0  0
 16 38  1  0  0  0  0
 17 39  1  0  0  0  0
 17 40  1  0  0  0  0
 18 41  1  0  0  0  0
 18 42  1  0  0  0  0
 19 43  1  0  0  0  0
 19 44  1  0  0  0  0
 23 45  1  0  0  0  0
 24 46  1  0  0  0  0
 24 47  1  0  0  0  0
 25 48  1  0  0  0  0
 25 49  1  0  0  0  0
 26 50  1  0  0  0  0
 26 51  1  0  0  0  0
 27 52  1  0  0  0  0
M  END
$$$$
PPY.sdf
  PyMOL2.5          3D                             0

 52 54  0  0  1  0  0  0  0  0999 V2000
    1.6994    1.7334    1.5494 O   0  0  0  0  0  0  0  0  0  0  0  0
    2.5675    0.9892    1.1149 C   0  0  0  0  0  0  0  0  0  0  0  0
    3.8646    1.2193    1.4118 O   0  0  0  0  0  0  0  0  0  0  0  0
    2.3745   -0.2207    0.1954 C   0  0  2  0  0  0  0  0  0  0  0  0
    2.7417    0.1944   -1.2344 C   0  0  0  0  0  0  0  0  0  0  0  0
    2.7023   -0.9544   -2.2156 C   0  0  0  0  0  0  0  0  0  0  0  0
    3.7747   -1.8537   -2.2981 C   0  0  0  0  0  0  0  0  0  0  0  0
    3.7319   -2.9212   -3.1959 C   0  0  0  0  0  0  0  0  0  0  0  0
    2.6190   -3.0936   -4.0094 C   0  0  0  0  0  0  0  0  0  0  0  0
    2.6199   -4.1494   -4.8724 O   0  0  0  0  0  0  0  0  0  0  0  0
    1.5425   -2.2156   -3.9398 C   0  0  0  0  0  0  0  0  0  0  0  0
    1.5848   -1.1472   -3.0413 C   0  0  0  0  0  0  0  0  0  0  0  0
    0.9821   -0.6594    0.2906 N   0  0  0  0  0  0  0  0  0  0  0  0
    0.5549   -1.3726    1.3845 C   0  0  0  0  0  0  0  0  0  0  0  0
    1.3389   -1.8548    2.2014 O   0  0  0  0  0  0  0  0  0  0  0  0
   -0.9719   -1.5251    1.5418 C   0  0  2  0  0  0  0  0  0  0  0  0
   -1.7401   -2.1725    0.4001 C   0  0  0  0  0  0  0  0  0  0  0  0
   -3.2047   -1.8509    0.7414 C   0  0  0  0  0  0  0  0  0  0  0  0
   -3.1528   -0.8276    1.8880 C   0  0  0  0  0  0  0  0  0  0  0  0
   -1.7799   -0.3481    1.8889 N   0  0  0  0  0  0  0  0  0  0  0  0
   -1.6219    0.8429    1.1645 C   0  0  0  0  0  0  0  0  0  0  0  0
   -1.0730    0.8919    0.0630 O   0  0  0  0  0  0  0  0  0  0  0  0
   -2.1549    2.0965    1.8952 C   0  0  2  0  0  0  0  0  0  0  0  0
   -3.2170    2.8143    1.0640 C   0  0  0  0  0  0  0  0  0  0  0  0
   -2.6305    4.1856    0.7641 C   0  0  0  0  0  0  0  0  0  0  0  0
   -1.1402    3.9966    0.9466 C   0  0  0  0  0  0  0  0  0  0  0  0
   -1.0630    3.0801    2.0818 N   0  0  0  0  0  0  0  0  0  0  0  0
    3.8357    1.9806    2.0292 H   0  0  0  0  0  0  0  0  0  0  0  0
    3.0166   -1.0325    0.5576 H   0  0  0  0  0  0  0  0  0  0  0  0
    3.7480    0.6336   -1.2574 H   0  0  0  0  0  0  0  0  0  0  0  0
    2.0714    0.9931   -1.5808 H   0  0  0  0  0  0  0  0  0  0  0  0
    4.6498   -1.7308   -1.6640 H   0  0  0  0  0  0  0  0  0  0  0  0
    4.5638   -3.6168   -3.2587 H   0  0  0  0  0  0  0  0  0  0  0  0
    1.7870   -4.1398   -5.3711 H   0  0  0  0  0  0  0  0  0  0  0  0
    0.6682   -2.3449   -4.5691 H   0  0  0  0  0  0  0  0  0  0  0  0
    0.7375   -0.4668   -2.9853 H   0  0  0  0  0  0  0  0  0  0  0  0
    0.2869   -0.0161   -0.0938 H   0  0  0  0  0  0  0  0  0  0  0  0
   -1.0742   -2.1920    2.4134 H   0  0  0  0  0  0  0  0  0  0  0  0
   -1.5577   -3.2500    0.3376 H   0  0  0  0  0  0  0  0  0  0  0  0
   -1.4753   -1.7384   -0.5705 H   0  0  0  0  0  0  0  0  0  0  0  0
   -3.7088   -1.4297   -0.1355 H   0  0  0  0  0  0  0  0  0  0  0  0
   -3.7593   -2.7451    1.0439 H   0  0  0  0  0  0  0  0  0  0  0  0
   -3.3375   -1.3200    2.8494 H   0  0  0  0  0  0  0  0  0  0  0  0
   -3.8886   -0.0293    1.7520 H   0  0  0  0  0  0  0  0  0  0  0  0
   -2.5474    1.8135    2.8776 H   0  0  0  0  0  0  0  0  0  0  0  0
   -3.4385    2.2846    0.1304 H   0  0  0  0  0  0  0  0  0  0  0  0
   -4.1565    2.9189    1.6174 H   0  0  0  0  0  0  0  0  0  0  0  0
   -3.0129    4.9185    1.4854 H   0  0  0  0  0  0  0  0  0  0  0  0
   -2.8881    4.5344   -0.2403 H   0  0  0  0  0  0  0  0  0  0  0  0
   -0.6884    3.5524    0.0525 H   0  0  0  0  0  0  0  0  0  0  0  0
   -0.6298    4.9402    1.1586 H   0  0  0  0  0  0  0  0  0  0  0  0
   -0.1506    2.6047    2.0750 H   0  0  0  0  0  0  0  0  0  0  0  0
  1  2  2  0  0  0  0
  2  3  1  0  0  0  0
  2  4  1  0  0  0  0
  4  5  1  0  0  0  0
  5  6  1  0  0  0  0
  6  7  2  0  0  0  0
  7  8  1  0  0  0  0
  8  9  2  0  0  0  0
  9 10  1  0  0  0  0
  9 11  1  0  0  0  0
 11 12  2  0  0  0  0
  4 13  1  0  0  0  0
 13 14  1  0  0  0  0
 14 15  2  0  0  0  0
 14 16  1  0  0  0  0
 16 17  1  0  0  0  0
 17 18  1  0  0  0  0
 18 19  1  0  0  0  0
 19 20  1  0  0  0  0
 20 21  1  0  0  0  0
 21 22  2  0  0  0  0
 21 23  1  0  0  0  0
 23 24  1  0  0  0  0
 24 25  1  0  0  0  0
 25 26  1  0  0  0  0
 26 27  1  0  0  0  0
  6 12  1  0  0  0  0
 16 20  1  0  0  0  0
 23 27  1  0  0  0  0
  3 28  1  0  0  0  0
  4 29  1  0  0  0  0
  5 30  1  0  0  0  0
  5 31  1  0  0  0  0
  7 32  1  0  0  0  0
  8 33  1  0  0  0  0
 10 34  1  0  0  0  0
 11 35  1  0  0  0  0
 12 36  1  0  0  0  0
 13 37  1  0  0  0  0
 16 38  1  0  0  0  0
 17 39  1  0  0  0  0
 17 40  1  0  0  0  0
 18 41  1  0  0  0  0
 18 42  1  0  0  0  0
 19 43  1  0  0  0  0
 19 44  1  0  0  0  0
 23 45  1  0  0  0  0
 24 46  1  0  0  0  0
 24 47  1  0  0  0  0
 25 48  1  0  0  0  0
 25 49  1  0  0  0  0
 26 50  1  0  0  0  0
 26 51  1  0  0  0  0
 27 52  1  0  0  0  0
M  END
$$$$
PPY.sdf
  PyMOL2.5          3D                             0

 52 54  0  0  1  0  0  0  0  0999 V2000
   -1.5509    1.2689   -3.2400 O   0  0  0  0  0  0  0  0  0  0  0  0
   -0.3635    1.4974   -3.0558 C   0  0  0  0  0  0  0  0  0  0  0  0
    0.1695    2.6845   -3.4044 O   0  0  0  0  0  0  0  0  0  0  0  0
    0.6585    0.5102   -2.5040 C   0  0  2  0  0  0  0  0  0  0  0  0
    1.2027   -0.3166   -3.6759 C   0  0  0  0  0  0  0  0  0  0  0  0
    2.2492   -1.3288   -3.2674 C   0  0  0  0  0  0  0  0  0  0  0  0
    1.9943   -2.7021   -3.3918 C   0  0  0  0  0  0  0  0  0  0  0  0
    2.9570   -3.6373   -3.0087 C   0  0  0  0  0  0  0  0  0  0  0  0
    4.1754   -3.2040   -2.5021 C   0  0  0  0  0  0  0  0  0  0  0  0
    5.0851   -4.1516   -2.1367 O   0  0  0  0  0  0  0  0  0  0  0  0
    4.4512   -1.8472   -2.3748 C   0  0  0  0  0  0  0  0  0  0  0  0
    3.4887   -0.9109   -2.7599 C   0  0  0  0  0  0  0  0  0  0  0  0
   -0.0289   -0.3277   -1.5142 N   0  0  0  0  0  0  0  0  0  0  0  0
    0.0192    0.0067   -0.1750 C   0  0  0  0  0  0  0  0  0  0  0  0
    0.7822    0.8700    0.2592 O   0  0  0  0  0  0  0  0  0  0  0  0
   -0.8396   -0.8760    0.7599 C   0  0  2  0  0  0  0  0  0  0  0  0
   -2.0627   -1.5972    0.2126 C   0  0  0  0  0  0  0  0  0  0  0  0
   -2.8107   -2.0300    1.4817 C   0  0  0  0  0  0  0  0  0  0  0  0
   -2.1925   -1.2158    2.6280 C   0  0  0  0  0  0  0  0  0  0  0  0
   -1.3515   -0.2288    1.9699 N   0  0  0  0  0  0  0  0  0  0  0  0
   -1.9326    1.0492    1.8112 C   0  0  0  0  0  0  0  0  0  0  0  0
   -2.2102    1.5195    0.7096 O   0  0  0  0  0  0  0  0  0  0  0  0
   -2.2068    1.7947    3.1438 C   0  0  2  0  0  0  0  0  0  0  0  0
   -2.4005    3.2934    2.9646 C   0  0  0  0  0  0  0  0  0  0  0  0
   -1.0055    3.8911    3.1011 C   0  0  0  0  0  0  0  0  0  0  0  0
   -0.1165    2.7515    3.5713 C   0  0  0  0  0  0  0  0  0  0  0  0
   -1.0358    1.7135    4.0464 N   0  0  0  0  0  0  0  0  0  0  0  0
   -0.6023    3.2213   -3.6831 H   0  0  0  0  0  0  0  0  0  0  0  0
    1.4581    1.0743   -2.0115 H   0  0  0  0  0  0  0  0  0  0  0  0
    1.6445    0.3466   -4.4316 H   0  0  0  0  0  0  0  0  0  0  0  0
    0.3748   -0.8293   -4.1844 H   0  0  0  0  0  0  0  0  0  0  0  0
    1.0449   -3.0564   -3.7860 H   0  0  0  0  0  0  0  0  0  0  0  0
    2.7569   -4.7005   -3.1051 H   0  0  0  0  0  0  0  0  0  0  0  0
    5.8771   -3.7026   -1.7985 H   0  0  0  0  0  0  0  0  0  0  0  0
    5.4003   -1.4992   -1.9797 H   0  0  0  0  0  0  0  0  0  0  0  0
    3.7130    0.1487   -2.6554 H   0  0  0  0  0  0  0  0  0  0  0  0
   -0.8843   -0.7586   -1.8433 H   0  0  0  0  0  0  0  0  0  0  0  0
   -0.1330   -1.6420    1.1154 H   0  0  0  0  0  0  0  0  0  0  0  0
   -1.7999   -2.4519   -0.4187 H   0  0  0  0  0  0  0  0  0  0  0  0
   -2.6924   -0.9253   -0.3823 H   0  0  0  0  0  0  0  0  0  0  0  0
   -2.6965   -3.1029    1.6698 H   0  0  0  0  0  0  0  0  0  0  0  0
   -3.8819   -1.8247    1.3812 H   0  0  0  0  0  0  0  0  0  0  0  0
   -2.9625   -0.7803    3.2683 H   0  0  0  0  0  0  0  0  0  0  0  0
   -1.5426   -1.8521    3.2389 H   0  0  0  0  0  0  0  0  0  0  0  0
   -3.0937    1.3547    3.6090 H   0  0  0  0  0  0  0  0  0  0  0  0
   -3.0368    3.6862    3.7678 H   0  0  0  0  0  0  0  0  0  0  0  0
   -2.8639    3.5718    2.0133 H   0  0  0  0  0  0  0  0  0  0  0  0
   -1.0163    4.7139    3.8245 H   0  0  0  0  0  0  0  0  0  0  0  0
   -0.6513    4.2896    2.1443 H   0  0  0  0  0  0  0  0  0  0  0  0
    0.4895    2.3742    2.7393 H   0  0  0  0  0  0  0  0  0  0  0  0
    0.5654    3.0673    4.3662 H   0  0  0  0  0  0  0  0  0  0  0  0
   -0.5914    0.8007    3.9270 H   0  0  0  0  0  0  0  0  0  0  0  0
  1  2  2  0  0  0  0
  2  3  1  0  0  0  0
  2  4  1  0  0  0  0
  4  5  1  0  0  0  0
  5  6  1  0  0  0  0
  6  7  2  0  0  0  0
  7  8  1  0  0  0  0
  8  9  2  0  0  0  0
  9 10  1  0  0  0  0
  9 11  1  0  0  0  0
 11 12  2  0  0  0  0
  4 13  1  0  0  0  0
 13 14  1  0  0  0  0
 14 15  2  0  0  0  0
 14 16  1  0  0  0  0
 16 17  1  0  0  0  0
 17 18  1  0  0  0  0
 18 19  1  0  0  0  0
 19 20  1  0  0  0  0
 20 21  1  0  0  0  0
 21 22  2  0  0  0  0
 21 23  1  0  0  0  0
 23 24  1  0  0  0  0
 24 25  1  0  0  0  0
 25 26  1  0  0  0  0
 26 27  1  0  0  0  0
  6 12  1  0  0  0  0
 16 20  1  0  0  0  0
 23 27  1  0  0  0  0
  3 28  1  0  0  0  0
  4 29  1  0  0  0  0
  5 30  1  0  0  0  0
  5 31  1  0  0  0  0
  7 32  1  0  0  0  0
  8 33  1  0  0  0  0
 10 34  1  0  0  0  0
 11 35  1  0  0  0  0
 12 36  1  0  0  0  0
 13 37  1  0  0  0  0
 16 38  1  0  0  0  0
 17 39  1  0  0  0  0
 17 40  1  0  0  0  0
 18 41  1  0  0  0  0
 18 42  1  0  0  0  0
 19 43  1  0  0  0  0
 19 44  1  0  0  0  0
 23 45  1  0  0  0  0
 24 46  1  0  0  0  0
 24 47  1  0  0  0  0
 25 48  1  0  0  0  0
 25 49  1  0  0  0  0
 26 50  1  0  0  0  0
 26 51  1  0  0  0  0
 27 52  1  0  0  0  0
M  END
$$$$
PPY.sdf
  PyMOL2.5          3D                             0

 52 54  0  0  1  0  0  0  0  0999 V2000
   -0.9449   -1.2347   -3.5329 O   0  0  0  0  0  0  0  0  0  0  0  0
   -0.2528   -0.2769   -3.8474 C   0  0  0  0  0  0  0  0  0  0  0  0
   -0.3425    0.2429   -5.0895 O   0  0  0  0  0  0  0  0  0  0  0  0
    0.7629    0.4468   -2.9627 C   0  0  2  0  0  0  0  0  0  0  0  0
    2.1979    0.2712   -3.4823 C   0  0  0  0  0  0  0  0  0  0  0  0
    2.7505   -1.1336   -3.3702 C   0  0  0  0  0  0  0  0  0  0  0  0
    3.4768   -1.5192   -2.2323 C   0  0  0  0  0  0  0  0  0  0  0  0
    3.9736   -2.8187   -2.1124 C   0  0  0  0  0  0  0  0  0  0  0  0
    3.7439   -3.7343   -3.1331 C   0  0  0  0  0  0  0  0  0  0  0  0
    4.2101   -5.0132   -3.0588 O   0  0  0  0  0  0  0  0  0  0  0  0
    3.0294   -3.3706   -4.2677 C   0  0  0  0  0  0  0  0  0  0  0  0
    2.5343   -2.0714   -4.3889 C   0  0  0  0  0  0  0  0  0  0  0  0
    0.6079   -0.0250   -1.5841 N   0  0  0  0  0  0  0  0  0  0  0  0
   -0.2705    0.6000   -0.7181 C   0  0  0  0  0  0  0  0  0  0  0  0
   -0.8332    1.6556   -0.9995 O   0  0  0  0  0  0  0  0  0  0  0  0
   -0.5237   -0.1934    0.5846 C   0  0  2  0  0  0  0  0  0  0  0  0
   -1.6025   -1.2518    0.3631 C   0  0  0  0  0  0  0  0  0  0  0  0
   -2.8915   -0.4839    0.6366 C   0  0  0  0  0  0  0  0  0  0  0  0
   -2.5108    0.4742    1.7610 C   0  0  0  0  0  0  0  0  0  0  0  0
   -1.0706    0.6460    1.6422 N   0  0  0  0  0  0  0  0  0  0  0  0
   -0.2387    1.4598    2.3762 C   0  0  0  0  0  0  0  0  0  0  0  0
    0.9795    1.4690    2.1556 O   0  0  0  0  0  0  0  0  0  0  0  0
   -0.7913    2.3097    3.5332 C   0  0  2  0  0  0  0  0  0  0  0  0
   -1.2264    1.5015    4.7519 C   0  0  0  0  0  0  0  0  0  0  0  0
   -2.5787    2.0838    5.1472 C   0  0  0  0  0  0  0  0  0  0  0  0
   -2.6458    3.4114    4.4158 C   0  0  0  0  0  0  0  0  0  0  0  0
   -1.9725    3.1128    3.1582 N   0  0  0  0  0  0  0  0  0  0  0  0
   -1.0529   -0.2831   -5.5146 H   0  0  0  0  0  0  0  0  0  0  0  0
    0.5046    1.5121   -2.9951 H   0  0  0  0  0  0  0  0  0  0  0  0
    2.2653    0.5935   -4.5294 H   0  0  0  0  0  0  0  0  0  0  0  0
    2.8611    0.9472   -2.9257 H   0  0  0  0  0  0  0  0  0  0  0  0
    3.6607   -0.8052   -1.4308 H   0  0  0  0  0  0  0  0  0  0  0  0
    4.5337   -3.0931   -1.2241 H   0  0  0  0  0  0  0  0  0  0  0  0
    4.7090   -5.1135   -2.2317 H   0  0  0  0  0  0  0  0  0  0  0  0
    2.8604   -4.0966   -5.0581 H   0  0  0  0  0  0  0  0  0  0  0  0
    1.9833   -1.8004   -5.2867 H   0  0  0  0  0  0  0  0  0  0  0  0
    0.7708   -1.0151   -1.4379 H   0  0  0  0  0  0  0  0  0  0  0  0
    0.4209   -0.6447    0.9102 H   0  0  0  0  0  0  0  0  0  0  0  0
   -1.5925   -1.6988   -0.6351 H   0  0  0  0  0  0  0  0  0  0  0  0
   -1.4943   -2.0550    1.1022 H   0  0  0  0  0  0  0  0  0  0  0  0
   -3.1836    0.0831   -0.2556 H   0  0  0  0  0  0  0  0  0  0  0  0
   -3.7266   -1.1361    0.9075 H   0  0  0  0  0  0  0  0  0  0  0  0
   -3.0368    1.4246    1.6559 H   0  0  0  0  0  0  0  0  0  0  0  0
   -2.7308    0.0372    2.7388 H   0  0  0  0  0  0  0  0  0  0  0  0
    0.0071    3.0032    3.8312 H   0  0  0  0  0  0  0  0  0  0  0  0
   -0.5082    1.6469    5.5678 H   0  0  0  0  0  0  0  0  0  0  0  0
   -1.2976    0.4247    4.5700 H   0  0  0  0  0  0  0  0  0  0  0  0
   -3.3821    1.4200    4.8053 H   0  0  0  0  0  0  0  0  0  0  0  0
   -2.6767    2.2004    6.2306 H   0  0  0  0  0  0  0  0  0  0  0  0
   -2.1080    4.1911    4.9676 H   0  0  0  0  0  0  0  0  0  0  0  0
   -3.6761    3.7408    4.2564 H   0  0  0  0  0  0  0  0  0  0  0  0
   -1.6813    3.9587    2.6698 H   0  0  0  0  0  0  0  0  0  0  0  0
  1  2  2  0  0  0  0
  2  3  1  0  0  0  0
  2  4  1  0  0  0  0
  4  5  1  0  0  0  0
  5  6  1  0  0  0  0
  6  7  2  0  0  0  0
  7  8  1  0  0  0  0
  8  9  2  0  0  0  0
  9 10  1  0  0  0  0
  9 11  1  0  0  0  0
 11 12  2  0  0  0  0
  4 13  1  0  0  0  0
 13 14  1  0  0  0  0
 14 15  2  0  0  0  0
 14 16  1  0  0  0  0
 16 17  1  0  0  0  0
 17 18  1  0  0  0  0
 18 19  1  0  0  0  0
 19 20  1  0  0  0  0
 20 21  1  0  0  0  0
 21 22  2  0  0  0  0
 21 23  1  0  0  0  0
 23 24  1  0  0  0  0
 24 25  1  0  0  0  0
 25 26  1  0  0  0  0
 26 27  1  0  0  0  0
  6 12  1  0  0  0  0
 16 20  1  0  0  0  0
 23 27  1  0  0  0  0
  3 28  1  0  0  0  0
  4 29  1  0  0  0  0
  5 30  1  0  0  0  0
  5 31  1  0  0  0  0
  7 32  1  0  0  0  0
  8 33  1  0  0  0  0
 10 34  1  0  0  0  0
 11 35  1  0  0  0  0
 12 36  1  0  0  0  0
 13 37  1  0  0  0  0
 16 38  1  0  0  0  0
 17 39  1  0  0  0  0
 17 40  1  0  0  0  0
 18 41  1  0  0  0  0
 18 42  1  0  0  0  0
 19 43  1  0  0  0  0
 19 44  1  0  0  0  0
 23 45  1  0  0  0  0
 24 46  1  0  0  0  0
 24 47  1  0  0  0  0
 25 48  1  0  0  0  0
 25 49  1  0  0  0  0
 26 50  1  0  0  0  0
 26 51  1  0  0  0  0
 27 52  1  0  0  0  0
M  END
$$$$
PPY.sdf
  PyMOL2.5          3D                             0

 52 54  0  0  1  0  0  0  0  0999 V2000
   -1.4001   -4.1106   -1.9626 O   0  0  0  0  0  0  0  0  0  0  0  0
   -0.2573   -3.7357   -1.7336 C   0  0  0  0  0  0  0  0  0  0  0  0
    0.7395   -4.6442   -1.7540 O   0  0  0  0  0  0  0  0  0  0  0  0
    0.2000   -2.2836   -1.5221 C   0  0  2  0  0  0  0  0  0  0  0  0
    1.4869   -2.1394   -0.6851 C   0  0  0  0  0  0  0  0  0  0  0  0
    2.7128   -1.9085   -1.5428 C   0  0  0  0  0  0  0  0  0  0  0  0
    3.5875   -2.9612   -1.8433 C   0  0  0  0  0  0  0  0  0  0  0  0
    4.7090   -2.7435   -2.6468 C   0  0  0  0  0  0  0  0  0  0  0  0
    4.9536   -1.4703   -3.1508 C   0  0  0  0  0  0  0  0  0  0  0  0
    6.0364   -1.2145   -3.9393 O   0  0  0  0  0  0  0  0  0  0  0  0
    4.0969   -0.4147   -2.8649 C   0  0  0  0  0  0  0  0  0  0  0  0
    2.9768   -0.6319   -2.0620 C   0  0  0  0  0  0  0  0  0  0  0  0
   -0.9055   -1.4929   -0.9687 N   0  0  0  0  0  0  0  0  0  0  0  0
   -1.3578   -1.7074    0.3142 C   0  0  0  0  0  0  0  0  0  0  0  0
   -0.9250   -2.6154    1.0230 O   0  0  0  0  0  0  0  0  0  0  0  0
   -2.3974   -0.6931    0.8327 C   0  0  2  0  0  0  0  0  0  0  0  0
   -3.5474   -0.3193   -0.0912 C   0  0  0  0  0  0  0  0  0  0  0  0
   -4.1916    0.8753    0.6268 C   0  0  0  0  0  0  0  0  0  0  0  0
   -3.1868    1.3049    1.7077 C   0  0  0  0  0  0  0  0  0  0  0  0
   -1.9568    0.5967    1.3750 N   0  0  0  0  0  0  0  0  0  0  0  0
   -0.9851    1.3371    0.6965 C   0  0  0  0  0  0  0  0  0  0  0  0
   -0.5883    1.0280   -0.4322 O   0  0  0  0  0  0  0  0  0  0  0  0
   -0.4017    2.5830    1.3980 C   0  0  2  0  0  0  0  0  0  0  0  0
   -0.3520    2.5787    2.9249 C   0  0  0  0  0  0  0  0  0  0  0  0
   -0.9616    3.9138    3.3354 C   0  0  0  0  0  0  0  0  0  0  0  0
   -0.8778    4.7627    2.0810 C   0  0  0  0  0  0  0  0  0  0  0  0
   -1.1549    3.7979    1.0213 N   0  0  0  0  0  0  0  0  0  0  0  0
    0.2630   -5.4878   -1.9041 H   0  0  0  0  0  0  0  0  0  0  0  0
    0.3520   -1.8794   -2.5310 H   0  0  0  0  0  0  0  0  0  0  0  0
    1.6465   -3.0090   -0.0355 H   0  0  0  0  0  0  0  0  0  0  0  0
    1.4129   -1.2813   -0.0029 H   0  0  0  0  0  0  0  0  0  0  0  0
    3.3980   -3.9592   -1.4530 H   0  0  0  0  0  0  0  0  0  0  0  0
    5.3724   -3.5739   -2.8658 H   0  0  0  0  0  0  0  0  0  0  0  0
    6.5398   -2.0381   -4.0455 H   0  0  0  0  0  0  0  0  0  0  0  0
    4.3002    0.5742   -3.2651 H   0  0  0  0  0  0  0  0  0  0  0  0
    2.3109    0.2006   -1.8422 H   0  0  0  0  0  0  0  0  0  0  0  0
   -0.9110   -0.5064   -1.2335 H   0  0  0  0  0  0  0  0  0  0  0  0
   -2.8475   -1.2158    1.6928 H   0  0  0  0  0  0  0  0  0  0  0  0
   -4.2507   -1.1450   -0.2372 H   0  0  0  0  0  0  0  0  0  0  0  0
   -3.1934   -0.0078   -1.0803 H   0  0  0  0  0  0  0  0  0  0  0  0
   -5.1524    0.6071    1.0787 H   0  0  0  0  0  0  0  0  0  0  0  0
   -4.3759    1.6880   -0.0844 H   0  0  0  0  0  0  0  0  0  0  0  0
   -3.0920    2.3887    1.7476 H   0  0  0  0  0  0  0  0  0  0  0  0
   -3.5158    0.9495    2.6911 H   0  0  0  0  0  0  0  0  0  0  0  0
    0.6304    2.6811    1.0328 H   0  0  0  0  0  0  0  0  0  0  0  0
   -0.8754    1.7465    3.4031 H   0  0  0  0  0  0  0  0  0  0  0  0
    0.6924    2.5376    3.2577 H   0  0  0  0  0  0  0  0  0  0  0  0
   -0.4341    4.3658    4.1807 H   0  0  0  0  0  0  0  0  0  0  0  0
   -2.0087    3.7691    3.6282 H   0  0  0  0  0  0  0  0  0  0  0  0
    0.1254    5.1884    1.9625 H   0  0  0  0  0  0  0  0  0  0  0  0
   -1.6069    5.5776    2.0867 H   0  0  0  0  0  0  0  0  0  0  0  0
   -0.8328    4.1376    0.1151 H   0  0  0  0  0  0  0  0  0  0  0  0
  1  2  2  0  0  0  0
  2  3  1  0  0  0  0
  2  4  1  0  0  0  0
  4  5  1  0  0  0  0
  5  6  1  0  0  0  0
  6  7  2  0  0  0  0
  7  8  1  0  0  0  0
  8  9  2  0  0  0  0
  9 10  1  0  0  0  0
  9 11  1  0  0  0  0
 11 12  2  0  0  0  0
  4 13  1  0  0  0  0
 13 14  1  0  0  0  0
 14 15  2  0  0  0  0
 14 16  1  0  0  0  0
 16 17  1  0  0  0  0
 17 18  1  0  0  0  0
 18 19  1  0  0  0  0
 19 20  1  0  0  0  0
 20 21  1  0  0  0  0
 21 22  2  0  0  0  0
 21 23  1  0  0  0  0
 23 24  1  0  0  0  0
 24 25  1  0  0  0  0
 25 26  1  0  0  0  0
 26 27  1  0  0  0  0
  6 12  1  0  0  0  0
 16 20  1  0  0  0  0
 23 27  1  0  0  0  0
  3 28  1  0  0  0  0
  4 29  1  0  0  0  0
  5 30  1  0  0  0  0
  5 31  1  0  0  0  0
  7 32  1  0  0  0  0
  8 33  1  0  0  0  0
 10 34  1  0  0  0  0
 11 35  1  0  0  0  0
 12 36  1  0  0  0  0
 13 37  1  0  0  0  0
 16 38  1  0  0  0  0
 17 39  1  0  0  0  0
 17 40  1  0  0  0  0
 18 41  1  0  0  0  0
 18 42  1  0  0  0  0
 19 43  1  0  0  0  0
 19 44  1  0  0  0  0
 23 45  1  0  0  0  0
 24 46  1  0  0  0  0
 24 47  1  0  0  0  0
 25 48  1  0  0  0  0
 25 49  1  0  0  0  0
 26 50  1  0  0  0  0
 26 51  1  0  0  0  0
 27 52  1  0  0  0  0
M  END
$$$$
PPY.sdf
  PyMOL2.5          3D                             0

 52 54  0  0  1  0  0  0  0  0999 V2000
   -0.9500   -1.5760   -3.3287 O   0  0  0  0  0  0  0  0  0  0  0  0
   -0.4471   -0.5035   -3.6318 C   0  0  0  0  0  0  0  0  0  0  0  0
   -0.5116   -0.0580   -4.9032 O   0  0  0  0  0  0  0  0  0  0  0  0
    0.3006    0.4489   -2.6972 C   0  0  2  0  0  0  0  0  0  0  0  0
    1.7981    0.5110   -3.0372 C   0  0  0  0  0  0  0  0  0  0  0  0
    2.5723   -0.7525   -2.7275 C   0  0  0  0  0  0  0  0  0  0  0  0
    3.2250   -0.8959   -1.4936 C   0  0  0  0  0  0  0  0  0  0  0  0
    3.9133   -2.0707   -1.1905 C   0  0  0  0  0  0  0  0  0  0  0  0
    3.9548   -3.1030   -2.1187 C   0  0  0  0  0  0  0  0  0  0  0  0
    4.6358   -4.2339   -1.7794 O   0  0  0  0  0  0  0  0  0  0  0  0
    3.3218   -2.9790   -3.3506 C   0  0  0  0  0  0  0  0  0  0  0  0
    2.6324   -1.8027   -3.6547 C   0  0  0  0  0  0  0  0  0  0  0  0
    0.0582    0.0364   -1.3092 N   0  0  0  0  0  0  0  0  0  0  0  0
   -1.0709    0.4741   -0.6429 C   0  0  0  0  0  0  0  0  0  0  0  0
   -1.7949    1.3606   -1.0861 O   0  0  0  0  0  0  0  0  0  0  0  0
   -1.3207   -0.2430    0.7038 C   0  0  2  0  0  0  0  0  0  0  0  0
   -1.8331   -1.6666    0.4672 C   0  0  0  0  0  0  0  0  0  0  0  0
   -3.3432   -1.4727    0.3677 C   0  0  0  0  0  0  0  0  0  0  0  0
   -3.6228   -0.3896    1.3984 C   0  0  0  0  0  0  0  0  0  0  0  0
   -2.3933    0.3790    1.4814 N   0  0  0  0  0  0  0  0  0  0  0  0
   -2.3395    1.5358    2.2296 C   0  0  0  0  0  0  0  0  0  0  0  0
   -3.3332    1.9519    2.8343 O   0  0  0  0  0  0  0  0  0  0  0  0
   -0.9889    2.2917    2.2986 C   0  0  2  0  0  0  0  0  0  0  0  0
    0.0260    1.5768    3.1920 C   0  0  0  0  0  0  0  0  0  0  0  0
    0.3545    2.5659    4.2992 C   0  0  0  0  0  0  0  0  0  0  0  0
   -0.8482    3.4811    4.3288 C   0  0  0  0  0  0  0  0  0  0  0  0
   -1.1708    3.6330    2.9116 N   0  0  0  0  0  0  0  0  0  0  0  0
   -1.0619   -0.7258   -5.3650 H   0  0  0  0  0  0  0  0  0  0  0  0
   -0.1375    1.4438   -2.8422 H   0  0  0  0  0  0  0  0  0  0  0  0
    2.2532    1.3400   -2.4786 H   0  0  0  0  0  0  0  0  0  0  0  0
    1.9388    0.7599   -4.0970 H   0  0  0  0  0  0  0  0  0  0  0  0
    3.2038   -0.0922   -0.7602 H   0  0  0  0  0  0  0  0  0  0  0  0
    4.4198   -2.1793   -0.2355 H   0  0  0  0  0  0  0  0  0  0  0  0
    4.6019   -4.8532   -2.5269 H   0  0  0  0  0  0  0  0  0  0  0  0
    3.3531   -3.7802   -4.0824 H   0  0  0  0  0  0  0  0  0  0  0  0
    2.1445   -1.7142   -4.6233 H   0  0  0  0  0  0  0  0  0  0  0  0
    0.4036   -0.8873   -1.0699 H   0  0  0  0  0  0  0  0  0  0  0  0
   -0.3868   -0.2446    1.2715 H   0  0  0  0  0  0  0  0  0  0  0  0
   -1.6038   -2.2931    1.3381 H   0  0  0  0  0  0  0  0  0  0  0  0
   -1.4244   -2.1546   -0.4218 H   0  0  0  0  0  0  0  0  0  0  0  0
   -3.6078   -1.1156   -0.6349 H   0  0  0  0  0  0  0  0  0  0  0  0
   -3.9051   -2.3908    0.5603 H   0  0  0  0  0  0  0  0  0  0  0  0
   -4.4647    0.2513    1.1191 H   0  0  0  0  0  0  0  0  0  0  0  0
   -3.8182   -0.8203    2.3868 H   0  0  0  0  0  0  0  0  0  0  0  0
   -0.6078    2.4320    1.2834 H   0  0  0  0  0  0  0  0  0  0  0  0
   -0.3867    0.6590    3.6267 H   0  0  0  0  0  0  0  0  0  0  0  0
    0.9351    1.3118    2.6415 H   0  0  0  0  0  0  0  0  0  0  0  0
    0.5284    2.0699    5.2587 H   0  0  0  0  0  0  0  0  0  0  0  0
    1.2590    3.1299    4.0395 H   0  0  0  0  0  0  0  0  0  0  0  0
   -1.6800    3.0175    4.8717 H   0  0  0  0  0  0  0  0  0  0  0  0
   -0.6223    4.4443    4.7944 H   0  0  0  0  0  0  0  0  0  0  0  0
   -2.1585    3.8928    2.8184 H   0  0  0  0  0  0  0  0  0  0  0  0
  1  2  2  0  0  0  0
  2  3  1  0  0  0  0
  2  4  1  0  0  0  0
  4  5  1  0  0  0  0
  5  6  1  0  0  0  0
  6  7  2  0  0  0  0
  7  8  1  0  0  0  0
  8  9  2  0  0  0  0
  9 10  1  0  0  0  0
  9 11  1  0  0  0  0
 11 12  2  0  0  0  0
  4 13  1  0  0  0  0
 13 14  1  0  0  0  0
 14 15  2  0  0  0  0
 14 16  1  0  0  0  0
 16 17  1  0  0  0  0
 17 18  1  0  0  0  0
 18 19  1  0  0  0  0
 19 20  1  0  0  0  0
 20 21  1  0  0  0  0
 21 22  2  0  0  0  0
 21 23  1  0  0  0  0
 23 24  1  0  0  0  0
 24 25  1  0  0  0  0
 25 26  1  0  0  0  0
 26 27  1  0  0  0  0
  6 12  1  0  0  0  0
 16 20  1  0  0  0  0
 23 27  1  0  0  0  0
  3 28  1  0  0  0  0
  4 29  1  0  0  0  0
  5 30  1  0  0  0  0
  5 31  1  0  0  0  0
  7 32  1  0  0  0  0
  8 33  1  0  0  0  0
 10 34  1  0  0  0  0
 11 35  1  0  0  0  0
 12 36  1  0  0  0  0
 13 37  1  0  0  0  0
 16 38  1  0  0  0  0
 17 39  1  0  0  0  0
 17 40  1  0  0  0  0
 18 41  1  0  0  0  0
 18 42  1  0  0  0  0
 19 43  1  0  0  0  0
 19 44  1  0  0  0  0
 23 45  1  0  0  0  0
 24 46  1  0  0  0  0
 24 47  1  0  0  0  0
 25 48  1  0  0  0  0
 25 49  1  0  0  0  0
 26 50  1  0  0  0  0
 26 51  1  0  0  0  0
 27 52  1  0  0  0  0
M  END
$$$$
PPY.sdf
  PyMOL2.5          3D                             0

 52 54  0  0  1  0  0  0  0  0999 V2000
   -0.1987    2.6266   -1.9415 O   0  0  0  0  0  0  0  0  0  0  0  0
    0.8780    2.1464   -2.2628 C   0  0  0  0  0  0  0  0  0  0  0  0
    1.7688    2.8742   -2.9650 O   0  0  0  0  0  0  0  0  0  0  0  0
    1.3438    0.7207   -1.9923 C   0  0  2  0  0  0  0  0  0  0  0  0
    1.0453   -0.1342   -3.2300 C   0  0  0  0  0  0  0  0  0  0  0  0
    1.4498   -1.5813   -3.0597 C   0  0  0  0  0  0  0  0  0  0  0  0
    2.8042   -1.9454   -3.0444 C   0  0  0  0  0  0  0  0  0  0  0  0
    3.1783   -3.2783   -2.8587 C   0  0  0  0  0  0  0  0  0  0  0  0
    2.1956   -4.2476   -2.6891 C   0  0  0  0  0  0  0  0  0  0  0  0
    2.5160   -5.5595   -2.5013 O   0  0  0  0  0  0  0  0  0  0  0  0
    0.8491   -3.9065   -2.7049 C   0  0  0  0  0  0  0  0  0  0  0  0
    0.4748   -2.5752   -2.8903 C   0  0  0  0  0  0  0  0  0  0  0  0
    0.6353    0.2259   -0.8106 N   0  0  0  0  0  0  0  0  0  0  0  0
    1.1427    0.3967    0.4586 C   0  0  0  0  0  0  0  0  0  0  0  0
    2.2718    0.8255    0.6788 O   0  0  0  0  0  0  0  0  0  0  0  0
    0.2441   -0.1530    1.5806 C   0  0  2  0  0  0  0  0  0  0  0  0
    0.5319   -1.6526    1.7529 C   0  0  0  0  0  0  0  0  0  0  0  0
   -0.8366   -2.2777    1.9853 C   0  0  0  0  0  0  0  0  0  0  0  0
   -1.7543   -1.4269    1.1274 C   0  0  0  0  0  0  0  0  0  0  0  0
   -1.1881   -0.0937    1.2376 N   0  0  0  0  0  0  0  0  0  0  0  0
   -2.0009    1.0234    1.1943 C   0  0  0  0  0  0  0  0  0  0  0  0
   -3.1825    0.9289    0.8483 O   0  0  0  0  0  0  0  0  0  0  0  0
   -1.3827    2.3925    1.5791 C   0  0  2  0  0  0  0  0  0  0  0  0
   -1.1426    2.5105    3.0850 C   0  0  0  0  0  0  0  0  0  0  0  0
   -1.9974    3.6837    3.5387 C   0  0  0  0  0  0  0  0  0  0  0  0
   -3.0634    3.7830    2.4714 C   0  0  0  0  0  0  0  0  0  0  0  0
   -2.3175    3.4971    1.2487 N   0  0  0  0  0  0  0  0  0  0  0  0
    1.3505    3.7591   -3.0360 H   0  0  0  0  0  0  0  0  0  0  0  0
    2.4171    0.7434   -1.7716 H   0  0  0  0  0  0  0  0  0  0  0  0
    1.5662    0.2727   -4.1068 H   0  0  0  0  0  0  0  0  0  0  0  0
   -0.0243   -0.0794   -3.4751 H   0  0  0  0  0  0  0  0  0  0  0  0
    3.5786   -1.1917   -3.1716 H   0  0  0  0  0  0  0  0  0  0  0  0
    4.2324   -3.5364   -2.8466 H   0  0  0  0  0  0  0  0  0  0  0  0
    3.4829   -5.6473   -2.5267 H   0  0  0  0  0  0  0  0  0  0  0  0
    0.0931   -4.6753   -2.5741 H   0  0  0  0  0  0  0  0  0  0  0  0
   -0.5826   -2.3217   -2.8984 H   0  0  0  0  0  0  0  0  0  0  0  0
   -0.3751    0.1427   -0.8739 H   0  0  0  0  0  0  0  0  0  0  0  0
    0.4208    0.4071    2.5015 H   0  0  0  0  0  0  0  0  0  0  0  0
    1.2158   -1.8413    2.5865 H   0  0  0  0  0  0  0  0  0  0  0  0
    0.9873   -2.0865    0.8539 H   0  0  0  0  0  0  0  0  0  0  0  0
   -1.1110   -2.1782    3.0425 H   0  0  0  0  0  0  0  0  0  0  0  0
   -0.8717   -3.3378    1.7199 H   0  0  0  0  0  0  0  0  0  0  0  0
   -1.7065   -1.7258    0.0745 H   0  0  0  0  0  0  0  0  0  0  0  0
   -2.7943   -1.4629    1.4641 H   0  0  0  0  0  0  0  0  0  0  0  0
   -0.4629    2.5413    1.0077 H   0  0  0  0  0  0  0  0  0  0  0  0
   -0.0885    2.7012    3.3135 H   0  0  0  0  0  0  0  0  0  0  0  0
   -1.4471    1.6040    3.6207 H   0  0  0  0  0  0  0  0  0  0  0  0
   -1.3926    4.5987    3.5628 H   0  0  0  0  0  0  0  0  0  0  0  0
   -2.4165    3.5283    4.5372 H   0  0  0  0  0  0  0  0  0  0  0  0
   -3.8507    3.0376    2.6328 H   0  0  0  0  0  0  0  0  0  0  0  0
   -3.5234    4.7745    2.4390 H   0  0  0  0  0  0  0  0  0  0  0  0
   -2.9623    3.1707    0.5223 H   0  0  0  0  0  0  0  0  0  0  0  0
  1  2  2  0  0  0  0
  2  3  1  0  0  0  0
  2  4  1  0  0  0  0
  4  5  1  0  0  0  0
  5  6  1  0  0  0  0
  6  7  2  0  0  0  0
  7  8  1  0  0  0  0
  8  9  2  0  0  0  0
  9 10  1  0  0  0  0
  9 11  1  0  0  0  0
 11 12  2  0  0  0  0
  4 13  1  0  0  0  0
 13 14  1  0  0  0  0
 14 15  2  0  0  0  0
 14 16  1  0  0  0  0
 16 17  1  0  0  0  0
 17 18  1  0  0  0  0
 18 19  1  0  0  0  0
 19 20  1  0  0  0  0
 20 21  1  0  0  0  0
 21 22  2  0  0  0  0
 21 23  1  0  0  0  0
 23 24  1  0  0  0  0
 24 25  1  0  0  0  0
 25 26  1  0  0  0  0
 26 27  1  0  0  0  0
  6 12  1  0  0  0  0
 16 20  1  0  0  0  0
 23 27  1  0  0  0  0
  3 28  1  0  0  0  0
  4 29  1  0  0  0  0
  5 30  1  0  0  0  0
  5 31  1  0  0  0  0
  7 32  1  0  0  0  0
  8 33  1  0  0  0  0
 10 34  1  0  0  0  0
 11 35  1  0  0  0  0
 12 36  1  0  0  0  0
 13 37  1  0  0  0  0
 16 38  1  0  0  0  0
 17 39  1  0  0  0  0
 17 40  1  0  0  0  0
 18 41  1  0  0  0  0
 18 42  1  0  0  0  0
 19 43  1  0  0  0  0
 19 44  1  0  0  0  0
 23 45  1  0  0  0  0
 24 46  1  0  0  0  0
 24 47  1  0  0  0  0
 25 48  1  0  0  0  0
 25 49  1  0  0  0  0
 26 50  1  0  0  0  0
 26 51  1  0  0  0  0
 27 52  1  0  0  0  0
M  END
$$$$
PPY.sdf
  PyMOL2.5          3D                             0

 52 54  0  0  1  0  0  0  0  0999 V2000
   -0.3175    1.4358   -1.3704 O   0  0  0  0  0  0  0  0  0  0  0  0
    0.3666    0.5778   -1.9138 C   0  0  0  0  0  0  0  0  0  0  0  0
    0.7145    0.7428   -3.2049 O   0  0  0  0  0  0  0  0  0  0  0  0
    0.9733   -0.6630   -1.2400 C   0  0  2  0  0  0  0  0  0  0  0  0
    1.1210   -1.8783   -2.1749 C   0  0  0  0  0  0  0  0  0  0  0  0
    2.5036   -1.9902   -2.7843 C   0  0  0  0  0  0  0  0  0  0  0  0
    2.7319   -1.6211   -4.1163 C   0  0  0  0  0  0  0  0  0  0  0  0
    4.0105   -1.7189   -4.6674 C   0  0  0  0  0  0  0  0  0  0  0  0
    5.0624   -2.1867   -3.8901 C   0  0  0  0  0  0  0  0  0  0  0  0
    6.2948   -2.2658   -4.4685 O   0  0  0  0  0  0  0  0  0  0  0  0
    4.8582   -2.5604   -2.5662 C   0  0  0  0  0  0  0  0  0  0  0  0
    3.5787   -2.4620   -2.0148 C   0  0  0  0  0  0  0  0  0  0  0  0
    0.1962   -0.9699   -0.0344 N   0  0  0  0  0  0  0  0  0  0  0  0
   -1.0995   -1.4432   -0.0947 C   0  0  0  0  0  0  0  0  0  0  0  0
   -1.6172   -1.8237   -1.1418 O   0  0  0  0  0  0  0  0  0  0  0  0
   -1.8222   -1.4620    1.2733 C   0  0  2  0  0  0  0  0  0  0  0  0
   -3.2114   -2.0981    1.1920 C   0  0  0  0  0  0  0  0  0  0  0  0
   -4.1144   -0.9190    0.8475 C   0  0  0  0  0  0  0  0  0  0  0  0
   -3.5074    0.2230    1.6476 C   0  0  0  0  0  0  0  0  0  0  0  0
   -2.0912   -0.0951    1.7399 N   0  0  0  0  0  0  0  0  0  0  0  0
   -1.1129    0.6638    2.3540 C   0  0  0  0  0  0  0  0  0  0  0  0
    0.0384    0.2253    2.4430 O   0  0  0  0  0  0  0  0  0  0  0  0
   -1.5291    2.0517    2.8890 C   0  0  2  0  0  0  0  0  0  0  0  0
   -1.7456    3.0776    1.7764 C   0  0  0  0  0  0  0  0  0  0  0  0
   -0.8549    4.2577    2.1402 C   0  0  0  0  0  0  0  0  0  0  0  0
   -0.6057    4.0804    3.6231 C   0  0  0  0  0  0  0  0  0  0  0  0
   -0.4723    2.6369    3.7394 N   0  0  0  0  0  0  0  0  0  0  0  0
    0.2742    1.5810   -3.4574 H   0  0  0  0  0  0  0  0  0  0  0  0
    1.9549   -0.3484   -0.8642 H   0  0  0  0  0  0  0  0  0  0  0  0
    0.9440   -2.8117   -1.6231 H   0  0  0  0  0  0  0  0  0  0  0  0
    0.3662   -1.8606   -2.9713 H   0  0  0  0  0  0  0  0  0  0  0  0
    1.9160   -1.2515   -4.7335 H   0  0  0  0  0  0  0  0  0  0  0  0
    4.1836   -1.4306   -5.7001 H   0  0  0  0  0  0  0  0  0  0  0  0
    6.9204   -2.6130   -3.8122 H   0  0  0  0  0  0  0  0  0  0  0  0
    5.6736   -2.9284   -1.9521 H   0  0  0  0  0  0  0  0  0  0  0  0
    3.4223   -2.7582   -0.9794 H   0  0  0  0  0  0  0  0  0  0  0  0
    0.4364   -0.4514    0.8145 H   0  0  0  0  0  0  0  0  0  0  0  0
   -1.1871   -1.9969    1.9891 H   0  0  0  0  0  0  0  0  0  0  0  0
   -3.2904   -2.9123    0.4662 H   0  0  0  0  0  0  0  0  0  0  0  0
   -3.4941   -2.4931    2.1759 H   0  0  0  0  0  0  0  0  0  0  0  0
   -5.1633   -1.0971    1.1004 H   0  0  0  0  0  0  0  0  0  0  0  0
   -4.0548   -0.7010   -0.2253 H   0  0  0  0  0  0  0  0  0  0  0  0
   -3.9158    0.2552    2.6634 H   0  0  0  0  0  0  0  0  0  0  0  0
   -3.6630    1.1916    1.1676 H   0  0  0  0  0  0  0  0  0  0  0  0
   -2.4384    1.9425    3.4915 H   0  0  0  0  0  0  0  0  0  0  0  0
   -1.5028    2.7025    0.7776 H   0  0  0  0  0  0  0  0  0  0  0  0
   -2.7929    3.4020    1.7695 H   0  0  0  0  0  0  0  0  0  0  0  0
   -1.3236    5.2179    1.9055 H   0  0  0  0  0  0  0  0  0  0  0  0
    0.0888    4.1950    1.5839 H   0  0  0  0  0  0  0  0  0  0  0  0
    0.2973    4.6009    3.9534 H   0  0  0  0  0  0  0  0  0  0  0  0
   -1.4569    4.4404    4.2123 H   0  0  0  0  0  0  0  0  0  0  0  0
   -0.5434    2.3095    4.6992 H   0  0  0  0  0  0  0  0  0  0  0  0
  1  2  2  0  0  0  0
  2  3  1  0  0  0  0
  2  4  1  0  0  0  0
  4  5  1  0  0  0  0
  5  6  1  0  0  0  0
  6  7  2  0  0  0  0
  7  8  1  0  0  0  0
  8  9  2  0  0  0  0
  9 10  1  0  0  0  0
  9 11  1  0  0  0  0
 11 12  2  0  0  0  0
  4 13  1  0  0  0  0
 13 14  1  0  0  0  0
 14 15  2  0  0  0  0
 14 16  1  0  0  0  0
 16 17  1  0  0  0  0
 17 18  1  0  0  0  0
 18 19  1  0  0  0  0
 19 20  1  0  0  0  0
 20 21  1  0  0  0  0
 21 22  2  0  0  0  0
 21 23  1  0  0  0  0
 23 24  1  0  0  0  0
 24 25  1  0  0  0  0
 25 26  1  0  0  0  0
 26 27  1  0  0  0  0
  6 12  1  0  0  0  0
 16 20  1  0  0  0  0
 23 27  1  0  0  0  0
  3 28  1  0  0  0  0
  4 29  1  0  0  0  0
  5 30  1  0  0  0  0
  5 31  1  0  0  0  0
  7 32  1  0  0  0  0
  8 33  1  0  0  0  0
 10 34  1  0  0  0  0
 11 35  1  0  0  0  0
 12 36  1  0  0  0  0
 13 37  1  0  0  0  0
 16 38  1  0  0  0  0
 17 39  1  0  0  0  0
 17 40  1  0  0  0  0
 18 41  1  0  0  0  0
 18 42  1  0  0  0  0
 19 43  1  0  0  0  0
 19 44  1  0  0  0  0
 23 45  1  0  0  0  0
 24 46  1  0  0  0  0
 24 47  1  0  0  0  0
 25 48  1  0  0  0  0
 25 49  1  0  0  0  0
 26 50  1  0  0  0  0
 26 51  1  0  0  0  0
 27 52  1  0  0  0  0
M  END
$$$$
PPY.sdf
  PyMOL2.5          3D                             0

 52 54  0  0  1  0  0  0  0  0999 V2000
    3.0984    1.1207   -0.6718 O   0  0  0  0  0  0  0  0  0  0  0  0
    2.4641    0.5590   -1.5572 C   0  0  0  0  0  0  0  0  0  0  0  0
    2.2467    1.1954   -2.7199 O   0  0  0  0  0  0  0  0  0  0  0  0
    1.9208   -0.8698   -1.4574 C   0  0  2  0  0  0  0  0  0  0  0  0
    0.9496   -1.2989   -2.5720 C   0  0  0  0  0  0  0  0  0  0  0  0
    1.6594   -1.8900   -3.7732 C   0  0  0  0  0  0  0  0  0  0  0  0
    1.8489   -1.1326   -4.9373 C   0  0  0  0  0  0  0  0  0  0  0  0
    2.5144   -1.6762   -6.0386 C   0  0  0  0  0  0  0  0  0  0  0  0
    2.9902   -2.9813   -5.9747 C   0  0  0  0  0  0  0  0  0  0  0  0
    3.6454   -3.5511   -7.0259 O   0  0  0  0  0  0  0  0  0  0  0  0
    2.8100   -3.7489   -4.8311 C   0  0  0  0  0  0  0  0  0  0  0  0
    2.1447   -3.2058   -3.7313 C   0  0  0  0  0  0  0  0  0  0  0  0
    1.3800   -1.0447   -0.0973 N   0  0  0  0  0  0  0  0  0  0  0  0
    0.1584   -0.5003    0.2667 C   0  0  0  0  0  0  0  0  0  0  0  0
   -0.6155   -0.0006   -0.5459 O   0  0  0  0  0  0  0  0  0  0  0  0
   -0.1720   -0.6753    1.7649 C   0  0  2  0  0  0  0  0  0  0  0  0
   -0.6591   -2.1091    2.0115 C   0  0  0  0  0  0  0  0  0  0  0  0
   -1.8078   -1.9487    3.0001 C   0  0  0  0  0  0  0  0  0  0  0  0
   -2.4258   -0.6175    2.6059 C   0  0  0  0  0  0  0  0  0  0  0  0
   -1.2844    0.1712    2.1827 N   0  0  0  0  0  0  0  0  0  0  0  0
   -1.1305    1.5379    2.2747 C   0  0  0  0  0  0  0  0  0  0  0  0
   -0.0311    2.0673    2.0950 O   0  0  0  0  0  0  0  0  0  0  0  0
   -2.3725    2.3607    2.6770 C   0  0  2  0  0  0  0  0  0  0  0  0
   -2.3059    3.8153    2.2020 C   0  0  0  0  0  0  0  0  0  0  0  0
   -2.2625    4.6410    3.4742 C   0  0  0  0  0  0  0  0  0  0  0  0
   -2.9663    3.7551    4.4778 C   0  0  0  0  0  0  0  0  0  0  0  0
   -2.4632    2.4133    4.1663 N   0  0  0  0  0  0  0  0  0  0  0  0
    2.6233    2.0879   -2.5680 H   0  0  0  0  0  0  0  0  0  0  0  0
    2.8070   -1.5171   -1.4832 H   0  0  0  0  0  0  0  0  0  0  0  0
    0.2601   -2.0681   -2.1977 H   0  0  0  0  0  0  0  0  0  0  0  0
    0.3137   -0.4658   -2.8956 H   0  0  0  0  0  0  0  0  0  0  0  0
    1.4778   -0.1109   -4.9924 H   0  0  0  0  0  0  0  0  0  0  0  0
    2.6489   -1.0694   -6.9281 H   0  0  0  0  0  0  0  0  0  0  0  0
    3.6789   -2.9075   -7.7524 H   0  0  0  0  0  0  0  0  0  0  0  0
    3.1836   -4.7683   -4.7973 H   0  0  0  0  0  0  0  0  0  0  0  0
    2.0036   -3.8182   -2.8436 H   0  0  0  0  0  0  0  0  0  0  0  0
    2.0807   -1.0497    0.6359 H   0  0  0  0  0  0  0  0  0  0  0  0
    0.7049   -0.4300    2.3748 H   0  0  0  0  0  0  0  0  0  0  0  0
   -1.0303   -2.5720    1.0885 H   0  0  0  0  0  0  0  0  0  0  0  0
    0.1360   -2.7508    2.4041 H   0  0  0  0  0  0  0  0  0  0  0  0
   -2.5227   -2.7750    2.9612 H   0  0  0  0  0  0  0  0  0  0  0  0
   -1.4075   -1.8884    4.0195 H   0  0  0  0  0  0  0  0  0  0  0  0
   -3.0928   -0.7275    1.7441 H   0  0  0  0  0  0  0  0  0  0  0  0
   -2.9732   -0.1585    3.4311 H   0  0  0  0  0  0  0  0  0  0  0  0
   -3.2713    1.8918    2.2615 H   0  0  0  0  0  0  0  0  0  0  0  0
   -1.4593    4.0453    1.5484 H   0  0  0  0  0  0  0  0  0  0  0  0
   -3.2228    4.0573    1.6499 H   0  0  0  0  0  0  0  0  0  0  0  0
   -1.2220    4.8129    3.7757 H   0  0  0  0  0  0  0  0  0  0  0  0
   -2.7507    5.6126    3.3556 H   0  0  0  0  0  0  0  0  0  0  0  0
   -2.7415    4.0386    5.5102 H   0  0  0  0  0  0  0  0  0  0  0  0
   -4.0534    3.7860    4.3417 H   0  0  0  0  0  0  0  0  0  0  0  0
   -1.5050    2.3585    4.5247 H   0  0  0  0  0  0  0  0  0  0  0  0
  1  2  2  0  0  0  0
  2  3  1  0  0  0  0
  2  4  1  0  0  0  0
  4  5  1  0  0  0  0
  5  6  1  0  0  0  0
  6  7  2  0  0  0  0
  7  8  1  0  0  0  0
  8  9  2  0  0  0  0
  9 10  1  0  0  0  0
  9 11  1  0  0  0  0
 11 12  2  0  0  0  0
  4 13  1  0  0  0  0
 13 14  1  0  0  0  0
 14 15  2  0  0  0  0
 14 16  1  0  0  0  0
 16 17  1  0  0  0  0
 17 18  1  0  0  0  0
 18 19  1  0  0  0  0
 19 20  1  0  0  0  0
 20 21  1  0  0  0  0
 21 22  2  0  0  0  0
 21 23  1  0  0  0  0
 23 24  1  0  0  0  0
 24 25  1  0  0  0  0
 25 26  1  0  0  0  0
 26 27  1  0  0  0  0
  6 12  1  0  0  0  0
 16 20  1  0  0  0  0
 23 27  1  0  0  0  0
  3 28  1  0  0  0  0
  4 29  1  0  0  0  0
  5 30  1  0  0  0  0
  5 31  1  0  0  0  0
  7 32  1  0  0  0  0
  8 33  1  0  0  0  0
 10 34  1  0  0  0  0
 11 35  1  0  0  0  0
 12 36  1  0  0  0  0
 13 37  1  0  0  0  0
 16 38  1  0  0  0  0
 17 39  1  0  0  0  0
 17 40  1  0  0  0  0
 18 41  1  0  0  0  0
 18 42  1  0  0  0  0
 19 43  1  0  0  0  0
 19 44  1  0  0  0  0
 23 45  1  0  0  0  0
 24 46  1  0  0  0  0
 24 47  1  0  0  0  0
 25 48  1  0  0  0  0
 25 49  1  0  0  0  0
 26 50  1  0  0  0  0
 26 51  1  0  0  0  0
 27 52  1  0  0  0  0
M  END
$$$$
PPY.sdf
  PyMOL2.5          3D                             0

 52 54  0  0  1  0  0  0  0  0999 V2000
    2.4383   -4.2346   -2.0832 O   0  0  0  0  0  0  0  0  0  0  0  0
    1.8322   -3.6782   -1.1824 C   0  0  0  0  0  0  0  0  0  0  0  0
    1.8394   -4.2284    0.0583 O   0  0  0  0  0  0  0  0  0  0  0  0
    1.0492   -2.3621   -1.2646 C   0  0  2  0  0  0  0  0  0  0  0  0
    1.9940   -1.2258   -1.6915 C   0  0  0  0  0  0  0  0  0  0  0  0
    2.0002   -1.0105   -3.1879 C   0  0  0  0  0  0  0  0  0  0  0  0
    2.9862   -1.5904   -3.9964 C   0  0  0  0  0  0  0  0  0  0  0  0
    2.9699   -1.3930   -5.3781 C   0  0  0  0  0  0  0  0  0  0  0  0
    1.9693   -0.6193   -5.9532 C   0  0  0  0  0  0  0  0  0  0  0  0
    1.9920   -0.4523   -7.3065 O   0  0  0  0  0  0  0  0  0  0  0  0
    0.9783   -0.0390   -5.1689 C   0  0  0  0  0  0  0  0  0  0  0  0
    0.9939   -0.2372   -3.7869 C   0  0  0  0  0  0  0  0  0  0  0  0
    0.4331   -2.0875    0.0392 N   0  0  0  0  0  0  0  0  0  0  0  0
   -0.5507   -1.1392    0.2007 C   0  0  0  0  0  0  0  0  0  0  0  0
   -1.0171   -0.5046   -0.7438 O   0  0  0  0  0  0  0  0  0  0  0  0
   -1.0727   -1.0159    1.6464 C   0  0  2  0  0  0  0  0  0  0  0  0
   -2.2672   -1.9617    1.8297 C   0  0  0  0  0  0  0  0  0  0  0  0
   -3.3158   -1.1190    2.5497 C   0  0  0  0  0  0  0  0  0  0  0  0
   -3.0473    0.2898    2.0491 C   0  0  0  0  0  0  0  0  0  0  0  0
   -1.6051    0.3176    1.9048 N   0  0  0  0  0  0  0  0  0  0  0  0
   -0.7583    1.4063    1.9547 C   0  0  0  0  0  0  0  0  0  0  0  0
    0.4640    1.2588    1.8799 O   0  0  0  0  0  0  0  0  0  0  0  0
   -1.4143    2.7912    2.1710 C   0  0  2  0  0  0  0  0  0  0  0  0
   -0.5074    3.9472    1.7523 C   0  0  0  0  0  0  0  0  0  0  0  0
    0.0679    4.5114    3.0457 C   0  0  0  0  0  0  0  0  0  0  0  0
   -0.3895    3.5584    4.1309 C   0  0  0  0  0  0  0  0  0  0  0  0
   -1.6495    3.0224    3.6162 N   0  0  0  0  0  0  0  0  0  0  0  0
    2.3716   -5.0447   -0.0642 H   0  0  0  0  0  0  0  0  0  0  0  0
    0.2256   -2.5088   -1.9734 H   0  0  0  0  0  0  0  0  0  0  0  0
    3.0181   -1.4162   -1.3436 H   0  0  0  0  0  0  0  0  0  0  0  0
    1.7079   -0.2754   -1.2219 H   0  0  0  0  0  0  0  0  0  0  0  0
    3.7701   -2.2058   -3.5604 H   0  0  0  0  0  0  0  0  0  0  0  0
    3.7345   -1.8448   -6.0033 H   0  0  0  0  0  0  0  0  0  0  0  0
    1.2404    0.1090   -7.5572 H   0  0  0  0  0  0  0  0  0  0  0  0
    0.1905    0.5643   -5.6078 H   0  0  0  0  0  0  0  0  0  0  0  0
    0.2141    0.2141   -3.1739 H   0  0  0  0  0  0  0  0  0  0  0  0
    0.8174   -2.5816    0.8384 H   0  0  0  0  0  0  0  0  0  0  0  0
   -0.2697   -1.2211    2.3632 H   0  0  0  0  0  0  0  0  0  0  0  0
   -2.6661   -2.3031    0.8665 H   0  0  0  0  0  0  0  0  0  0  0  0
   -1.9965   -2.8532    2.4045 H   0  0  0  0  0  0  0  0  0  0  0  0
   -4.3384   -1.4512    2.3509 H   0  0  0  0  0  0  0  0  0  0  0  0
   -3.1436   -1.1699    3.6318 H   0  0  0  0  0  0  0  0  0  0  0  0
   -3.4160    1.0520    2.7377 H   0  0  0  0  0  0  0  0  0  0  0  0
   -3.4870    0.4541    1.0594 H   0  0  0  0  0  0  0  0  0  0  0  0
   -2.3525    2.8343    1.6088 H   0  0  0  0  0  0  0  0  0  0  0  0
   -1.0896    4.7281    1.2483 H   0  0  0  0  0  0  0  0  0  0  0  0
    0.2898    3.6425    1.0664 H   0  0  0  0  0  0  0  0  0  0  0  0
   -0.3346    5.5162    3.2214 H   0  0  0  0  0  0  0  0  0  0  0  0
    1.1589    4.5900    3.0069 H   0  0  0  0  0  0  0  0  0  0  0  0
    0.3419    2.7553    4.2779 H   0  0  0  0  0  0  0  0  0  0  0  0
   -0.5329    4.0674    5.0884 H   0  0  0  0  0  0  0  0  0  0  0  0
   -1.8667    2.1440    4.0843 H   0  0  0  0  0  0  0  0  0  0  0  0
  1  2  2  0  0  0  0
  2  3  1  0  0  0  0
  2  4  1  0  0  0  0
  4  5  1  0  0  0  0
  5  6  1  0  0  0  0
  6  7  2  0  0  0  0
  7  8  1  0  0  0  0
  8  9  2  0  0  0  0
  9 10  1  0  0  0  0
  9 11  1  0  0  0  0
 11 12  2  0  0  0  0
  4 13  1  0  0  0  0
 13 14  1  0  0  0  0
 14 15  2  0  0  0  0
 14 16  1  0  0  0  0
 16 17  1  0  0  0  0
 17 18  1  0  0  0  0
 18 19  1  0  0  0  0
 19 20  1  0  0  0  0
 20 21  1  0  0  0  0
 21 22  2  0  0  0  0
 21 23  1  0  0  0  0
 23 24  1  0  0  0  0
 24 25  1  0  0  0  0
 25 26  1  0  0  0  0
 26 27  1  0  0  0  0
  6 12  1  0  0  0  0
 16 20  1  0  0  0  0
 23 27  1  0  0  0  0
  3 28  1  0  0  0  0
  4 29  1  0  0  0  0
  5 30  1  0  0  0  0
  5 31  1  0  0  0  0
  7 32  1  0  0  0  0
  8 33  1  0  0  0  0
 10 34  1  0  0  0  0
 11 35  1  0  0  0  0
 12 36  1  0  0  0  0
 13 37  1  0  0  0  0
 16 38  1  0  0  0  0
 17 39  1  0  0  0  0
 17 40  1  0  0  0  0
 18 41  1  0  0  0  0
 18 42  1  0  0  0  0
 19 43  1  0  0  0  0
 19 44  1  0  0  0  0
 23 45  1  0  0  0  0
 24 46  1  0  0  0  0
 24 47  1  0  0  0  0
 25 48  1  0  0  0  0
 25 49  1  0  0  0  0
 26 50  1  0  0  0  0
 26 51  1  0  0  0  0
 27 52  1  0  0  0  0
M  END
$$$$
PPY.sdf
  PyMOL2.5          3D                             0

 52 54  0  0  1  0  0  0  0  0999 V2000
   -0.4753   -3.8770   -0.8956 O   0  0  0  0  0  0  0  0  0  0  0  0
   -0.4528   -2.9298   -1.6711 C   0  0  0  0  0  0  0  0  0  0  0  0
   -1.2476   -2.9142   -2.7562 O   0  0  0  0  0  0  0  0  0  0  0  0
    0.4233   -1.6899   -1.5260 C   0  0  2  0  0  0  0  0  0  0  0  0
    1.7482   -1.8737   -2.2775 C   0  0  0  0  0  0  0  0  0  0  0  0
    1.6207   -1.7255   -3.7750 C   0  0  0  0  0  0  0  0  0  0  0  0
    1.7058   -2.8434   -4.6161 C   0  0  0  0  0  0  0  0  0  0  0  0
    1.5784   -2.6959   -5.9981 C   0  0  0  0  0  0  0  0  0  0  0  0
    1.3674   -1.4343   -6.5407 C   0  0  0  0  0  0  0  0  0  0  0  0
    1.2478   -1.3369   -7.8956 O   0  0  0  0  0  0  0  0  0  0  0  0
    1.2830   -0.3120   -5.7237 C   0  0  0  0  0  0  0  0  0  0  0  0
    1.4108   -0.4589   -4.3411 C   0  0  0  0  0  0  0  0  0  0  0  0
    0.6617   -1.5058   -0.0879 N   0  0  0  0  0  0  0  0  0  0  0  0
    0.9525   -0.2632    0.4275 C   0  0  0  0  0  0  0  0  0  0  0  0
    1.1744    0.7041   -0.3017 O   0  0  0  0  0  0  0  0  0  0  0  0
    1.1055   -0.1885    1.9637 C   0  0  2  0  0  0  0  0  0  0  0  0
    0.5165   -1.2798    2.8468 C   0  0  0  0  0  0  0  0  0  0  0  0
    0.5583   -0.6569    4.2517 C   0  0  0  0  0  0  0  0  0  0  0  0
    0.8250    0.8401    4.0351 C   0  0  0  0  0  0  0  0  0  0  0  0
    0.6333    1.0382    2.6086 N   0  0  0  0  0  0  0  0  0  0  0  0
   -0.6273    1.5226    2.2204 C   0  0  0  0  0  0  0  0  0  0  0  0
   -1.3753    0.9018    1.4641 O   0  0  0  0  0  0  0  0  0  0  0  0
   -0.9927    2.9163    2.7871 C   0  0  2  0  0  0  0  0  0  0  0  0
   -2.1104    2.8178    3.8247 C   0  0  0  0  0  0  0  0  0  0  0  0
   -3.2574    3.6374    3.2542 C   0  0  0  0  0  0  0  0  0  0  0  0
   -2.9769    3.6710    1.7679 C   0  0  0  0  0  0  0  0  0  0  0  0
   -1.5212    3.7911    1.7130 N   0  0  0  0  0  0  0  0  0  0  0  0
   -1.7478   -3.7553   -2.7224 H   0  0  0  0  0  0  0  0  0  0  0  0
   -0.1410   -0.8190   -1.8800 H   0  0  0  0  0  0  0  0  0  0  0  0
    2.1840   -2.8531   -2.0378 H   0  0  0  0  0  0  0  0  0  0  0  0
    2.4883   -1.1384   -1.9343 H   0  0  0  0  0  0  0  0  0  0  0  0
    1.8709   -3.8363   -4.2049 H   0  0  0  0  0  0  0  0  0  0  0  0
    1.6438   -3.5623   -6.6497 H   0  0  0  0  0  0  0  0  0  0  0  0
    1.1047   -0.4037   -8.1234 H   0  0  0  0  0  0  0  0  0  0  0  0
    1.1199    0.6776   -6.1380 H   0  0  0  0  0  0  0  0  0  0  0  0
    1.3469    0.4222   -3.7034 H   0  0  0  0  0  0  0  0  0  0  0  0
    0.3558   -2.2565    0.5221 H   0  0  0  0  0  0  0  0  0  0  0  0
    2.1966   -0.1968    2.1130 H   0  0  0  0  0  0  0  0  0  0  0  0
    1.0846   -2.2140    2.7964 H   0  0  0  0  0  0  0  0  0  0  0  0
   -0.5202   -1.5043    2.5693 H   0  0  0  0  0  0  0  0  0  0  0  0
   -0.3955   -0.8184    4.7658 H   0  0  0  0  0  0  0  0  0  0  0  0
    1.3461   -1.1025    4.8682 H   0  0  0  0  0  0  0  0  0  0  0  0
    1.8688    1.0788    4.2681 H   0  0  0  0  0  0  0  0  0  0  0  0
    0.1746    1.4590    4.6568 H   0  0  0  0  0  0  0  0  0  0  0  0
   -0.0978    3.3877    3.2069 H   0  0  0  0  0  0  0  0  0  0  0  0
   -2.4309    1.7818    3.9849 H   0  0  0  0  0  0  0  0  0  0  0  0
   -1.7993    3.2250    4.7928 H   0  0  0  0  0  0  0  0  0  0  0  0
   -4.2331    3.2006    3.4867 H   0  0  0  0  0  0  0  0  0  0  0  0
   -3.2324    4.6521    3.6705 H   0  0  0  0  0  0  0  0  0  0  0  0
   -3.4666    4.5165    1.2768 H   0  0  0  0  0  0  0  0  0  0  0  0
   -3.3137    2.7472    1.2843 H   0  0  0  0  0  0  0  0  0  0  0  0
   -1.1823    3.4576    0.8070 H   0  0  0  0  0  0  0  0  0  0  0  0
  1  2  2  0  0  0  0
  2  3  1  0  0  0  0
  2  4  1  0  0  0  0
  4  5  1  0  0  0  0
  5  6  1  0  0  0  0
  6  7  2  0  0  0  0
  7  8  1  0  0  0  0
  8  9  2  0  0  0  0
  9 10  1  0  0  0  0
  9 11  1  0  0  0  0
 11 12  2  0  0  0  0
  4 13  1  0  0  0  0
 13 14  1  0  0  0  0
 14 15  2  0  0  0  0
 14 16  1  0  0  0  0
 16 17  1  0  0  0  0
 17 18  1  0  0  0  0
 18 19  1  0  0  0  0
 19 20  1  0  0  0  0
 20 21  1  0  0  0  0
 21 22  2  0  0  0  0
 21 23  1  0  0  0  0
 23 24  1  0  0  0  0
 24 25  1  0  0  0  0
 25 26  1  0  0  0  0
 26 27  1  0  0  0  0
  6 12  1  0  0  0  0
 16 20  1  0  0  0  0
 23 27  1  0  0  0  0
  3 28  1  0  0  0  0
  4 29  1  0  0  0  0
  5 30  1  0  0  0  0
  5 31  1  0  0  0  0
  7 32  1  0  0  0  0
  8 33  1  0  0  0  0
 10 34  1  0  0  0  0
 11 35  1  0  0  0  0
 12 36  1  0  0  0  0
 13 37  1  0  0  0  0
 16 38  1  0  0  0  0
 17 39  1  0  0  0  0
 17 40  1  0  0  0  0
 18 41  1  0  0  0  0
 18 42  1  0  0  0  0
 19 43  1  0  0  0  0
 19 44  1  0  0  0  0
 23 45  1  0  0  0  0
 24 46  1  0  0  0  0
 24 47  1  0  0  0  0
 25 48  1  0  0  0  0
 25 49  1  0  0  0  0
 26 50  1  0  0  0  0
 26 51  1  0  0  0  0
 27 52  1  0  0  0  0
M  END
$$$$
PPY.sdf
  PyMOL2.5          3D                             0

 52 54  0  0  1  0  0  0  0  0999 V2000
    0.5146    2.7328   -3.8366 O   0  0  0  0  0  0  0  0  0  0  0  0
    1.4794    2.1395   -3.3752 C   0  0  0  0  0  0  0  0  0  0  0  0
    2.7256    2.6218   -3.5564 O   0  0  0  0  0  0  0  0  0  0  0  0
    1.4525    0.8142   -2.6161 C   0  0  2  0  0  0  0  0  0  0  0  0
    1.7956   -0.3193   -3.5937 C   0  0  0  0  0  0  0  0  0  0  0  0
    1.8062   -1.7368   -3.0558 C   0  0  0  0  0  0  0  0  0  0  0  0
    1.8514   -2.7958   -3.9795 C   0  0  0  0  0  0  0  0  0  0  0  0
    1.8607   -4.1238   -3.5482 C   0  0  0  0  0  0  0  0  0  0  0  0
    1.8269   -4.4046   -2.1899 C   0  0  0  0  0  0  0  0  0  0  0  0
    1.8237   -5.7131   -1.8077 O   0  0  0  0  0  0  0  0  0  0  0  0
    1.7973   -3.3773   -1.2552 C   0  0  0  0  0  0  0  0  0  0  0  0
    1.7970   -2.0477   -1.6881 C   0  0  0  0  0  0  0  0  0  0  0  0
    0.1173    0.6544   -2.0347 N   0  0  0  0  0  0  0  0  0  0  0  0
   -0.1761    1.1640   -0.7862 C   0  0  0  0  0  0  0  0  0  0  0  0
    0.6656    1.7345   -0.0947 O   0  0  0  0  0  0  0  0  0  0  0  0
   -1.6560    1.0053   -0.3771 C   0  0  2  0  0  0  0  0  0  0  0  0
   -2.4968    2.1443   -0.9527 C   0  0  0  0  0  0  0  0  0  0  0  0
   -2.3981    3.2222    0.1247 C   0  0  0  0  0  0  0  0  0  0  0  0
   -2.3930    2.4246    1.4217 C   0  0  0  0  0  0  0  0  0  0  0  0
   -1.8154    1.1407    1.0651 N   0  0  0  0  0  0  0  0  0  0  0  0
   -1.4923    0.0917    1.9058 C   0  0  0  0  0  0  0  0  0  0  0  0
   -1.0825   -0.9762    1.4446 O   0  0  0  0  0  0  0  0  0  0  0  0
   -1.6271    0.3662    3.4254 C   0  0  2  0  0  0  0  0  0  0  0  0
   -0.4022    1.1136    3.9524 C   0  0  0  0  0  0  0  0  0  0  0  0
    0.3046    0.1289    4.8736 C   0  0  0  0  0  0  0  0  0  0  0  0
   -0.3063   -1.2144    4.5327 C   0  0  0  0  0  0  0  0  0  0  0  0
   -1.7004   -0.8894    4.2150 N   0  0  0  0  0  0  0  0  0  0  0  0
    2.5919    3.4734   -4.0234 H   0  0  0  0  0  0  0  0  0  0  0  0
    2.1876    0.8746   -1.8052 H   0  0  0  0  0  0  0  0  0  0  0  0
    1.0793   -0.2850   -4.4272 H   0  0  0  0  0  0  0  0  0  0  0  0
    2.7866   -0.1268   -4.0264 H   0  0  0  0  0  0  0  0  0  0  0  0
    1.8759   -2.5929   -5.0481 H   0  0  0  0  0  0  0  0  0  0  0  0
    1.8896   -4.9348   -4.2698 H   0  0  0  0  0  0  0  0  0  0  0  0
    1.7429   -5.7455   -0.8400 H   0  0  0  0  0  0  0  0  0  0  0  0
    1.7698   -3.5827   -0.1891 H   0  0  0  0  0  0  0  0  0  0  0  0
    1.7758   -1.2706   -0.9269 H   0  0  0  0  0  0  0  0  0  0  0  0
   -0.6479    0.4451   -2.6640 H   0  0  0  0  0  0  0  0  0  0  0  0
   -2.0143    0.0241   -0.7088 H   0  0  0  0  0  0  0  0  0  0  0  0
   -2.1541    2.5031   -1.9276 H   0  0  0  0  0  0  0  0  0  0  0  0
   -3.5411    1.8234   -1.0501 H   0  0  0  0  0  0  0  0  0  0  0  0
   -3.2169    3.9456    0.0800 H   0  0  0  0  0  0  0  0  0  0  0  0
   -1.4546    3.7705    0.0171 H   0  0  0  0  0  0  0  0  0  0  0  0
   -3.4122    2.2474    1.7816 H   0  0  0  0  0  0  0  0  0  0  0  0
   -1.8142    2.9123    2.2102 H   0  0  0  0  0  0  0  0  0  0  0  0
   -2.5491    0.9305    3.5977 H   0  0  0  0  0  0  0  0  0  0  0  0
    0.2720    1.4286    3.1480 H   0  0  0  0  0  0  0  0  0  0  0  0
   -0.6930    2.0073    4.5156 H   0  0  0  0  0  0  0  0  0  0  0  0
    0.0972    0.3872    5.9193 H   0  0  0  0  0  0  0  0  0  0  0  0
    1.3897    0.1390    4.7335 H   0  0  0  0  0  0  0  0  0  0  0  0
   -0.2400   -1.9194    5.3669 H   0  0  0  0  0  0  0  0  0  0  0  0
    0.1910   -1.6684    3.6687 H   0  0  0  0  0  0  0  0  0  0  0  0
   -2.1842   -0.6862    5.0888 H   0  0  0  0  0  0  0  0  0  0  0  0
  1  2  2  0  0  0  0
  2  3  1  0  0  0  0
  2  4  1  0  0  0  0
  4  5  1  0  0  0  0
  5  6  1  0  0  0  0
  6  7  2  0  0  0  0
  7  8  1  0  0  0  0
  8  9  2  0  0  0  0
  9 10  1  0  0  0  0
  9 11  1  0  0  0  0
 11 12  2  0  0  0  0
  4 13  1  0  0  0  0
 13 14  1  0  0  0  0
 14 15  2  0  0  0  0
 14 16  1  0  0  0  0
 16 17  1  0  0  0  0
 17 18  1  0  0  0  0
 18 19  1  0  0  0  0
 19 20  1  0  0  0  0
 20 21  1  0  0  0  0
 21 22  2  0  0  0  0
 21 23  1  0  0  0  0
 23 24  1  0  0  0  0
 24 25  1  0  0  0  0
 25 26  1  0  0  0  0
 26 27  1  0  0  0  0
  6 12  1  0  0  0  0
 16 20  1  0  0  0  0
 23 27  1  0  0  0  0
  3 28  1  0  0  0  0
  4 29  1  0  0  0  0
  5 30  1  0  0  0  0
  5 31  1  0  0  0  0
  7 32  1  0  0  0  0
  8 33  1  0  0  0  0
 10 34  1  0  0  0  0
 11 35  1  0  0  0  0
 12 36  1  0  0  0  0
 13 37  1  0  0  0  0
 16 38  1  0  0  0  0
 17 39  1  0  0  0  0
 17 40  1  0  0  0  0
 18 41  1  0  0  0  0
 18 42  1  0  0  0  0
 19 43  1  0  0  0  0
 19 44  1  0  0  0  0
 23 45  1  0  0  0  0
 24 46  1  0  0  0  0
 24 47  1  0  0  0  0
 25 48  1  0  0  0  0
 25 49  1  0  0  0  0
 26 50  1  0  0  0  0
 26 51  1  0  0  0  0
 27 52  1  0  0  0  0
M  END
$$$$
PPY.sdf
  PyMOL2.5          3D                             0

 52 54  0  0  1  0  0  0  0  0999 V2000
   -1.8922   -1.4605   -1.5749 O   0  0  0  0  0  0  0  0  0  0  0  0
   -1.4888   -1.0364   -2.6481 C   0  0  0  0  0  0  0  0  0  0  0  0
   -1.8494   -1.6478   -3.7966 O   0  0  0  0  0  0  0  0  0  0  0  0
   -0.5651    0.1648   -2.8776 C   0  0  2  0  0  0  0  0  0  0  0  0
    0.8189   -0.2948   -3.3775 C   0  0  0  0  0  0  0  0  0  0  0  0
    1.5727   -1.1540   -2.3812 C   0  0  0  0  0  0  0  0  0  0  0  0
    2.3706   -0.5617   -1.3901 C   0  0  0  0  0  0  0  0  0  0  0  0
    2.9514   -1.3392   -0.3875 C   0  0  0  0  0  0  0  0  0  0  0  0
    2.7620   -2.7157   -0.3943 C   0  0  0  0  0  0  0  0  0  0  0  0
    3.2776   -3.5041    0.5905 O   0  0  0  0  0  0  0  0  0  0  0  0
    2.0231   -3.3276   -1.3983 C   0  0  0  0  0  0  0  0  0  0  0  0
    1.4247   -2.5485   -2.3894 C   0  0  0  0  0  0  0  0  0  0  0  0
   -0.4633    0.9536   -1.6481 N   0  0  0  0  0  0  0  0  0  0  0  0
   -1.5047    1.7332   -1.2001 C   0  0  0  0  0  0  0  0  0  0  0  0
   -2.4985    1.9671   -1.8825 O   0  0  0  0  0  0  0  0  0  0  0  0
   -1.3358    2.2780    0.2413 C   0  0  2  0  0  0  0  0  0  0  0  0
   -1.3511    3.8081    0.2130 C   0  0  0  0  0  0  0  0  0  0  0  0
    0.1158    4.1588   -0.0159 C   0  0  0  0  0  0  0  0  0  0  0  0
    0.8509    3.1213    0.8177 C   0  0  0  0  0  0  0  0  0  0  0  0
   -0.0297    1.9632    0.8473 N   0  0  0  0  0  0  0  0  0  0  0  0
    0.3454    0.8352    1.5592 C   0  0  0  0  0  0  0  0  0  0  0  0
    1.4780    0.7596    2.0426 O   0  0  0  0  0  0  0  0  0  0  0  0
   -0.6998   -0.2914    1.7019 C   0  0  2  0  0  0  0  0  0  0  0  0
   -1.6310   -0.0645    2.8912 C   0  0  0  0  0  0  0  0  0  0  0  0
   -1.5737   -1.3601    3.6904 C   0  0  0  0  0  0  0  0  0  0  0  0
   -1.0262   -2.3759    2.7080 C   0  0  0  0  0  0  0  0  0  0  0  0
   -0.0512   -1.5915    1.9635 N   0  0  0  0  0  0  0  0  0  0  0  0
   -2.4623   -2.3554   -3.5034 H   0  0  0  0  0  0  0  0  0  0  0  0
   -1.0407    0.8007   -3.6343 H   0  0  0  0  0  0  0  0  0  0  0  0
    0.7156   -0.8492   -4.3190 H   0  0  0  0  0  0  0  0  0  0  0  0
    1.4318    0.5852   -3.6133 H   0  0  0  0  0  0  0  0  0  0  0  0
    2.5205    0.5161   -1.3673 H   0  0  0  0  0  0  0  0  0  0  0  0
    3.5272   -0.8537    0.3959 H   0  0  0  0  0  0  0  0  0  0  0  0
    3.5633   -2.9244    1.3183 H   0  0  0  0  0  0  0  0  0  0  0  0
    1.8941   -4.4062   -1.3950 H   0  0  0  0  0  0  0  0  0  0  0  0
    0.8268   -3.0399   -3.1539 H   0  0  0  0  0  0  0  0  0  0  0  0
    0.1571    0.6044   -0.9283 H   0  0  0  0  0  0  0  0  0  0  0  0
   -2.1486    1.8720    0.8494 H   0  0  0  0  0  0  0  0  0  0  0  0
   -2.0019    4.2362   -0.5550 H   0  0  0  0  0  0  0  0  0  0  0  0
   -1.6705    4.1950    1.1885 H   0  0  0  0  0  0  0  0  0  0  0  0
    0.3686    4.0394   -1.0763 H   0  0  0  0  0  0  0  0  0  0  0  0
    0.3602    5.1832    0.2783 H   0  0  0  0  0  0  0  0  0  0  0  0
    0.9942    3.4680    1.8475 H   0  0  0  0  0  0  0  0  0  0  0  0
    1.8242    2.8523    0.3959 H   0  0  0  0  0  0  0  0  0  0  0  0
   -1.2828   -0.3782    0.7810 H   0  0  0  0  0  0  0  0  0  0  0  0
   -1.3467    0.7900    3.5145 H   0  0  0  0  0  0  0  0  0  0  0  0
   -2.6547    0.1043    2.5370 H   0  0  0  0  0  0  0  0  0  0  0  0
   -0.8874   -1.2415    4.5381 H   0  0  0  0  0  0  0  0  0  0  0  0
   -2.5530   -1.6460    4.0853 H   0  0  0  0  0  0  0  0  0  0  0  0
   -1.8153   -2.7457    2.0430 H   0  0  0  0  0  0  0  0  0  0  0  0
   -0.5626   -3.2279    3.2125 H   0  0  0  0  0  0  0  0  0  0  0  0
    0.2123   -2.0477    1.0901 H   0  0  0  0  0  0  0  0  0  0  0  0
  1  2  2  0  0  0  0
  2  3  1  0  0  0  0
  2  4  1  0  0  0  0
  4  5  1  0  0  0  0
  5  6  1  0  0  0  0
  6  7  2  0  0  0  0
  7  8  1  0  0  0  0
  8  9  2  0  0  0  0
  9 10  1  0  0  0  0
  9 11  1  0  0  0  0
 11 12  2  0  0  0  0
  4 13  1  0  0  0  0
 13 14  1  0  0  0  0
 14 15  2  0  0  0  0
 14 16  1  0  0  0  0
 16 17  1  0  0  0  0
 17 18  1  0  0  0  0
 18 19  1  0  0  0  0
 19 20  1  0  0  0  0
 20 21  1  0  0  0  0
 21 22  2  0  0  0  0
 21 23  1  0  0  0  0
 23 24  1  0  0  0  0
 24 25  1  0  0  0  0
 25 26  1  0  0  0  0
 26 27  1  0  0  0  0
  6 12  1  0  0  0  0
 16 20  1  0  0  0  0
 23 27  1  0  0  0  0
  3 28  1  0  0  0  0
  4 29  1  0  0  0  0
  5 30  1  0  0  0  0
  5 31  1  0  0  0  0
  7 32  1  0  0  0  0
  8 33  1  0  0  0  0
 10 34  1  0  0  0  0
 11 35  1  0  0  0  0
 12 36  1  0  0  0  0
 13 37  1  0  0  0  0
 16 38  1  0  0  0  0
 17 39  1  0  0  0  0
 17 40  1  0  0  0  0
 18 41  1  0  0  0  0
 18 42  1  0  0  0  0
 19 43  1  0  0  0  0
 19 44  1  0  0  0  0
 23 45  1  0  0  0  0
 24 46  1  0  0  0  0
 24 47  1  0  0  0  0
 25 48  1  0  0  0  0
 25 49  1  0  0  0  0
 26 50  1  0  0  0  0
 26 51  1  0  0  0  0
 27 52  1  0  0  0  0
M  END
$$$$
PPY.sdf
  PyMOL2.5          3D                             0

 52 54  0  0  1  0  0  0  0  0999 V2000
    2.1331    2.3423   -1.5289 O   0  0  0  0  0  0  0  0  0  0  0  0
    1.9511    1.2910   -2.1324 C   0  0  0  0  0  0  0  0  0  0  0  0
    2.6315    1.0630   -3.2708 O   0  0  0  0  0  0  0  0  0  0  0  0
    1.0629    0.1342   -1.6553 C   0  0  2  0  0  0  0  0  0  0  0  0
    0.5448   -0.7905   -2.7719 C   0  0  0  0  0  0  0  0  0  0  0  0
    1.4270   -2.0044   -2.9806 C   0  0  0  0  0  0  0  0  0  0  0  0
    2.3280   -2.0628   -4.0524 C   0  0  0  0  0  0  0  0  0  0  0  0
    3.1476   -3.1797   -4.2311 C   0  0  0  0  0  0  0  0  0  0  0  0
    3.0643   -4.2404   -3.3353 C   0  0  0  0  0  0  0  0  0  0  0  0
    3.8463   -5.3491   -3.4729 O   0  0  0  0  0  0  0  0  0  0  0  0
    2.1757   -4.2024   -2.2683 C   0  0  0  0  0  0  0  0  0  0  0  0
    1.3564   -3.0870   -2.0906 C   0  0  0  0  0  0  0  0  0  0  0  0
   -0.0144    0.7083   -0.8439 N   0  0  0  0  0  0  0  0  0  0  0  0
   -1.0683    1.4099   -1.3861 C   0  0  0  0  0  0  0  0  0  0  0  0
   -1.2251    1.5413   -2.5984 O   0  0  0  0  0  0  0  0  0  0  0  0
   -1.9640    2.1356   -0.3633 C   0  0  2  0  0  0  0  0  0  0  0  0
   -1.6609    3.6371   -0.4158 C   0  0  0  0  0  0  0  0  0  0  0  0
   -1.9409    4.1086    1.0018 C   0  0  0  0  0  0  0  0  0  0  0  0
   -1.4433    2.9498    1.8495 C   0  0  0  0  0  0  0  0  0  0  0  0
   -1.7189    1.7694    1.0443 N   0  0  0  0  0  0  0  0  0  0  0  0
   -2.1621    0.5460    1.5243 C   0  0  0  0  0  0  0  0  0  0  0  0
   -2.7293   -0.2492    0.7717 O   0  0  0  0  0  0  0  0  0  0  0  0
   -1.9393    0.2452    3.0250 C   0  0  2  0  0  0  0  0  0  0  0  0
   -0.5045    0.4336    3.5159 C   0  0  0  0  0  0  0  0  0  0  0  0
   -0.2359   -0.7337    4.4631 C   0  0  0  0  0  0  0  0  0  0  0  0
   -1.5732   -1.4328    4.6080 C   0  0  0  0  0  0  0  0  0  0  0  0
   -2.1890   -1.1796    3.3176 N   0  0  0  0  0  0  0  0  0  0  0  0
    3.1360    1.8914   -3.4106 H   0  0  0  0  0  0  0  0  0  0  0  0
    1.6743   -0.4367   -0.9453 H   0  0  0  0  0  0  0  0  0  0  0  0
   -0.4579   -1.1657   -2.5250 H   0  0  0  0  0  0  0  0  0  0  0  0
    0.4305   -0.2488   -3.7192 H   0  0  0  0  0  0  0  0  0  0  0  0
    2.3964   -1.2353   -4.7557 H   0  0  0  0  0  0  0  0  0  0  0  0
    3.8375   -3.2014   -5.0684 H   0  0  0  0  0  0  0  0  0  0  0  0
    4.3855   -5.2464   -4.2737 H   0  0  0  0  0  0  0  0  0  0  0  0
    2.1167   -5.0399   -1.5792 H   0  0  0  0  0  0  0  0  0  0  0  0
    0.6571   -3.0700   -1.2566 H   0  0  0  0  0  0  0  0  0  0  0  0
    0.1486    0.8371    0.1465 H   0  0  0  0  0  0  0  0  0  0  0  0
   -3.0139    1.9262   -0.5987 H   0  0  0  0  0  0  0  0  0  0  0  0
   -2.2763    4.1559   -1.1574 H   0  0  0  0  0  0  0  0  0  0  0  0
   -0.6092    3.8238   -0.6679 H   0  0  0  0  0  0  0  0  0  0  0  0
   -1.4456    5.0525    1.2448 H   0  0  0  0  0  0  0  0  0  0  0  0
   -3.0208    4.2402    1.1409 H   0  0  0  0  0  0  0  0  0  0  0  0
   -0.3590    3.0074    1.9915 H   0  0  0  0  0  0  0  0  0  0  0  0
   -1.9402    2.9163    2.8216 H   0  0  0  0  0  0  0  0  0  0  0  0
   -2.6383    0.8579    3.6072 H   0  0  0  0  0  0  0  0  0  0  0  0
    0.2270    0.4310    2.6998 H   0  0  0  0  0  0  0  0  0  0  0  0
   -0.4005    1.3818    4.0546 H   0  0  0  0  0  0  0  0  0  0  0  0
    0.1582   -0.3978    5.4273 H   0  0  0  0  0  0  0  0  0  0  0  0
    0.5036   -1.4080    4.0141 H   0  0  0  0  0  0  0  0  0  0  0  0
   -2.1648   -0.9875    5.4162 H   0  0  0  0  0  0  0  0  0  0  0  0
   -1.4584   -2.5020    4.8058 H   0  0  0  0  0  0  0  0  0  0  0  0
   -3.1859   -1.3859    3.2983 H   0  0  0  0  0  0  0  0  0  0  0  0
  1  2  2  0  0  0  0
  2  3  1  0  0  0  0
  2  4  1  0  0  0  0
  4  5  1  0  0  0  0
  5  6  1  0  0  0  0
  6  7  2  0  0  0  0
  7  8  1  0  0  0  0
  8  9  2  0  0  0  0
  9 10  1  0  0  0  0
  9 11  1  0  0  0  0
 11 12  2  0  0  0  0
  4 13  1  0  0  0  0
 13 14  1  0  0  0  0
 14 15  2  0  0  0  0
 14 16  1  0  0  0  0
 16 17  1  0  0  0  0
 17 18  1  0  0  0  0
 18 19  1  0  0  0  0
 19 20  1  0  0  0  0
 20 21  1  0  0  0  0
 21 22  2  0  0  0  0
 21 23  1  0  0  0  0
 23 24  1  0  0  0  0
 24 25  1  0  0  0  0
 25 26  1  0  0  0  0
 26 27  1  0  0  0  0
  6 12  1  0  0  0  0
 16 20  1  0  0  0  0
 23 27  1  0  0  0  0
  3 28  1  0  0  0  0
  4 29  1  0  0  0  0
  5 30  1  0  0  0  0
  5 31  1  0  0  0  0
  7 32  1  0  0  0  0
  8 33  1  0  0  0  0
 10 34  1  0  0  0  0
 11 35  1  0  0  0  0
 12 36  1  0  0  0  0
 13 37  1  0  0  0  0
 16 38  1  0  0  0  0
 17 39  1  0  0  0  0
 17 40  1  0  0  0  0
 18 41  1  0  0  0  0
 18 42  1  0  0  0  0
 19 43  1  0  0  0  0
 19 44  1  0  0  0  0
 23 45  1  0  0  0  0
 24 46  1  0  0  0  0
 24 47  1  0  0  0  0
 25 48  1  0  0  0  0
 25 49  1  0  0  0  0
 26 50  1  0  0  0  0
 26 51  1  0  0  0  0
 27 52  1  0  0  0  0
M  END
$$$$
PPY.sdf
  PyMOL2.5          3D                             0

 52 54  0  0  1  0  0  0  0  0999 V2000
   -2.2490   -0.4005   -2.1476 O   0  0  0  0  0  0  0  0  0  0  0  0
   -1.3556    0.0374   -2.8592 C   0  0  0  0  0  0  0  0  0  0  0  0
   -1.6021    0.3739   -4.1404 O   0  0  0  0  0  0  0  0  0  0  0  0
    0.1055    0.2031   -2.4603 C   0  0  2  0  0  0  0  0  0  0  0  0
    0.8576   -1.0875   -2.8158 C   0  0  0  0  0  0  0  0  0  0  0  0
    2.2984   -1.1402   -2.3525 C   0  0  0  0  0  0  0  0  0  0  0  0
    3.1866   -0.0832   -2.6014 C   0  0  0  0  0  0  0  0  0  0  0  0
    4.5123   -0.1471   -2.1644 C   0  0  0  0  0  0  0  0  0  0  0  0
    4.9568   -1.2770   -1.4882 C   0  0  0  0  0  0  0  0  0  0  0  0
    6.2410   -1.3791   -1.0420 O   0  0  0  0  0  0  0  0  0  0  0  0
    4.0999   -2.3425   -1.2471 C   0  0  0  0  0  0  0  0  0  0  0  0
    2.7748   -2.2770   -1.6813 C   0  0  0  0  0  0  0  0  0  0  0  0
    0.1407    0.4728   -1.0239 N   0  0  0  0  0  0  0  0  0  0  0  0
    0.6184    1.6599   -0.5114 C   0  0  0  0  0  0  0  0  0  0  0  0
    1.2067    2.4938   -1.1967 O   0  0  0  0  0  0  0  0  0  0  0  0
    0.5501    1.7606    1.0230 C   0  0  2  0  0  0  0  0  0  0  0  0
    1.8357    1.1769    1.6210 C   0  0  0  0  0  0  0  0  0  0  0  0
    1.3791    0.5598    2.9338 C   0  0  0  0  0  0  0  0  0  0  0  0
    0.0042    0.0087    2.5950 C   0  0  0  0  0  0  0  0  0  0  0  0
   -0.5266    0.9519    1.6226 N   0  0  0  0  0  0  0  0  0  0  0  0
   -1.8425    1.3562    1.4972 C   0  0  0  0  0  0  0  0  0  0  0  0
   -2.1473    2.3162    0.7833 O   0  0  0  0  0  0  0  0  0  0  0  0
   -2.9276    0.5327    2.2308 C   0  0  2  0  0  0  0  0  0  0  0  0
   -3.1234   -0.8332    1.5799 C   0  0  0  0  0  0  0  0  0  0  0  0
   -4.4068   -0.6809    0.7876 C   0  0  0  0  0  0  0  0  0  0  0  0
   -5.2129    0.2732    1.6391 C   0  0  0  0  0  0  0  0  0  0  0  0
   -4.2374    1.2385    2.1492 N   0  0  0  0  0  0  0  0  0  0  0  0
   -2.5692    0.2506   -4.2449 H   0  0  0  0  0  0  0  0  0  0  0  0
    0.5107    1.0644   -3.0018 H   0  0  0  0  0  0  0  0  0  0  0  0
    0.8439   -1.2377   -3.9033 H   0  0  0  0  0  0  0  0  0  0  0  0
    0.3144   -1.9424   -2.3894 H   0  0  0  0  0  0  0  0  0  0  0  0
    2.8544    0.8113   -3.1249 H   0  0  0  0  0  0  0  0  0  0  0  0
    5.1728    0.6919   -2.3589 H   0  0  0  0  0  0  0  0  0  0  0  0
    6.7167   -0.5699   -1.2921 H   0  0  0  0  0  0  0  0  0  0  0  0
    4.4624   -3.2226   -0.7240 H   0  0  0  0  0  0  0  0  0  0  0  0
    2.1177   -3.1215   -1.4869 H   0  0  0  0  0  0  0  0  0  0  0  0
   -0.5032   -0.0429   -0.4336 H   0  0  0  0  0  0  0  0  0  0  0  0
    0.3980    2.8069    1.3112 H   0  0  0  0  0  0  0  0  0  0  0  0
    2.2645    0.3992    0.9766 H   0  0  0  0  0  0  0  0  0  0  0  0
    2.6041    1.9426    1.7666 H   0  0  0  0  0  0  0  0  0  0  0  0
    2.0623   -0.2089    3.3050 H   0  0  0  0  0  0  0  0  0  0  0  0
    1.2926    1.3416    3.6980 H   0  0  0  0  0  0  0  0  0  0  0  0
   -0.6240   -0.0862    3.4819 H   0  0  0  0  0  0  0  0  0  0  0  0
    0.0812   -0.9653    2.1001 H   0  0  0  0  0  0  0  0  0  0  0  0
   -2.6598    0.4438    3.2869 H   0  0  0  0  0  0  0  0  0  0  0  0
   -2.2986   -1.1512    0.9356 H   0  0  0  0  0  0  0  0  0  0  0  0
   -3.2641   -1.5949    2.3566 H   0  0  0  0  0  0  0  0  0  0  0  0
   -4.9141   -1.6371    0.6309 H   0  0  0  0  0  0  0  0  0  0  0  0
   -4.1983   -0.2347   -0.1917 H   0  0  0  0  0  0  0  0  0  0  0  0
   -5.6733   -0.2551    2.4818 H   0  0  0  0  0  0  0  0  0  0  0  0
   -6.0089    0.7648    1.0719 H   0  0  0  0  0  0  0  0  0  0  0  0
   -4.1186    1.9859    1.4520 H   0  0  0  0  0  0  0  0  0  0  0  0
  1  2  2  0  0  0  0
  2  3  1  0  0  0  0
  2  4  1  0  0  0  0
  4  5  1  0  0  0  0
  5  6  1  0  0  0  0
  6  7  2  0  0  0  0
  7  8  1  0  0  0  0
  8  9  2  0  0  0  0
  9 10  1  0  0  0  0
  9 11  1  0  0  0  0
 11 12  2  0  0  0  0
  4 13  1  0  0  0  0
 13 14  1  0  0  0  0
 14 15  2  0  0  0  0
 14 16  1  0  0  0  0
 16 17  1  0  0  0  0
 17 18  1  0  0  0  0
 18 19  1  0  0  0  0
 19 20  1  0  0  0  0
 20 21  1  0  0  0  0
 21 22  2  0  0  0  0
 21 23  1  0  0  0  0
 23 24  1  0  0  0  0
 24 25  1  0  0  0  0
 25 26  1  0  0  0  0
 26 27  1  0  0  0  0
  6 12  1  0  0  0  0
 16 20  1  0  0  0  0
 23 27  1  0  0  0  0
  3 28  1  0  0  0  0
  4 29  1  0  0  0  0
  5 30  1  0  0  0  0
  5 31  1  0  0  0  0
  7 32  1  0  0  0  0
  8 33  1  0  0  0  0
 10 34  1  0  0  0  0
 11 35  1  0  0  0  0
 12 36  1  0  0  0  0
 13 37  1  0  0  0  0
 16 38  1  0  0  0  0
 17 39  1  0  0  0  0
 17 40  1  0  0  0  0
 18 41  1  0  0  0  0
 18 42  1  0  0  0  0
 19 43  1  0  0  0  0
 19 44  1  0  0  0  0
 23 45  1  0  0  0  0
 24 46  1  0  0  0  0
 24 47  1  0  0  0  0
 25 48  1  0  0  0  0
 25 49  1  0  0  0  0
 26 50  1  0  0  0  0
 26 51  1  0  0  0  0
 27 52  1  0  0  0  0
M  END
$$$$
PPY.sdf
  PyMOL2.5          3D                             0

 52 54  0  0  1  0  0  0  0  0999 V2000
   -0.8192   -1.3181   -1.5682 O   0  0  0  0  0  0  0  0  0  0  0  0
    0.1049   -0.6199   -1.9649 C   0  0  0  0  0  0  0  0  0  0  0  0
    0.1970   -0.2790   -3.2636 O   0  0  0  0  0  0  0  0  0  0  0  0
    1.2253   -0.0524   -1.0989 C   0  0  2  0  0  0  0  0  0  0  0  0
    2.3805   -1.0551   -0.9891 C   0  0  0  0  0  0  0  0  0  0  0  0
    3.2065   -1.1666   -2.2484 C   0  0  0  0  0  0  0  0  0  0  0  0
    4.0841   -0.1331   -2.6091 C   0  0  0  0  0  0  0  0  0  0  0  0
    4.8435   -0.2227   -3.7774 C   0  0  0  0  0  0  0  0  0  0  0  0
    4.7253   -1.3491   -4.5846 C   0  0  0  0  0  0  0  0  0  0  0  0
    5.4473   -1.4777   -5.7343 O   0  0  0  0  0  0  0  0  0  0  0  0
    3.8636   -2.3836   -4.2417 C   0  0  0  0  0  0  0  0  0  0  0  0
    3.1038   -2.2943   -3.0745 C   0  0  0  0  0  0  0  0  0  0  0  0
    0.6442    0.2174    0.2180 N   0  0  0  0  0  0  0  0  0  0  0  0
    1.1685    1.1676    1.0640 C   0  0  0  0  0  0  0  0  0  0  0  0
    2.2669    1.6862    0.8742 O   0  0  0  0  0  0  0  0  0  0  0  0
    0.3616    1.3965    2.3559 C   0  0  2  0  0  0  0  0  0  0  0  0
    0.9583    0.5467    3.4822 C   0  0  0  0  0  0  0  0  0  0  0  0
   -0.2399    0.2258    4.3619 C   0  0  0  0  0  0  0  0  0  0  0  0
   -1.3599    0.0263    3.3542 C   0  0  0  0  0  0  0  0  0  0  0  0
   -1.0420    0.9500    2.2765 N   0  0  0  0  0  0  0  0  0  0  0  0
   -1.9543    1.6700    1.5207 C   0  0  0  0  0  0  0  0  0  0  0  0
   -1.5837    2.6549    0.8783 O   0  0  0  0  0  0  0  0  0  0  0  0
   -3.4257    1.1954    1.5369 C   0  0  2  0  0  0  0  0  0  0  0  0
   -3.6258   -0.2710    1.1539 C   0  0  0  0  0  0  0  0  0  0  0  0
   -4.8276   -0.2911    0.2136 C   0  0  0  0  0  0  0  0  0  0  0  0
   -5.4105    1.1046    0.3057 C   0  0  0  0  0  0  0  0  0  0  0  0
   -4.2238    1.9130    0.5238 N   0  0  0  0  0  0  0  0  0  0  0  0
   -0.5831   -0.6887   -3.6906 H   0  0  0  0  0  0  0  0  0  0  0  0
    1.5475    0.9077   -1.5189 H   0  0  0  0  0  0  0  0  0  0  0  0
    1.9941   -2.0453   -0.7116 H   0  0  0  0  0  0  0  0  0  0  0  0
    3.0560   -0.7715   -0.1711 H   0  0  0  0  0  0  0  0  0  0  0  0
    4.1799    0.7493   -1.9778 H   0  0  0  0  0  0  0  0  0  0  0  0
    5.5144    0.5899   -4.0363 H   0  0  0  0  0  0  0  0  0  0  0  0
    5.9934   -0.6820   -5.8429 H   0  0  0  0  0  0  0  0  0  0  0  0
    3.7835   -3.2574   -4.8818 H   0  0  0  0  0  0  0  0  0  0  0  0
    2.4328   -3.1108   -2.8182 H   0  0  0  0  0  0  0  0  0  0  0  0
   -0.3197   -0.0616    0.3760 H   0  0  0  0  0  0  0  0  0  0  0  0
    0.3705    2.4650    2.6005 H   0  0  0  0  0  0  0  0  0  0  0  0
    1.7446    1.0788    4.0266 H   0  0  0  0  0  0  0  0  0  0  0  0
    1.3942   -0.3830    3.0952 H   0  0  0  0  0  0  0  0  0  0  0  0
   -0.0824   -0.6503    4.9967 H   0  0  0  0  0  0  0  0  0  0  0  0
   -0.4637    1.0833    5.0079 H   0  0  0  0  0  0  0  0  0  0  0  0
   -1.3366   -0.9869    2.9394 H   0  0  0  0  0  0  0  0  0  0  0  0
   -2.3413    0.2204    3.7925 H   0  0  0  0  0  0  0  0  0  0  0  0
   -3.8446    1.4019    2.5292 H   0  0  0  0  0  0  0  0  0  0  0  0
   -3.8407   -0.8726    2.0442 H   0  0  0  0  0  0  0  0  0  0  0  0
   -2.7524   -0.7081    0.6578 H   0  0  0  0  0  0  0  0  0  0  0  0
   -4.4898   -0.4981   -0.8094 H   0  0  0  0  0  0  0  0  0  0  0  0
   -5.5539   -1.0616    0.4899 H   0  0  0  0  0  0  0  0  0  0  0  0
   -6.1007    1.1889    1.1530 H   0  0  0  0  0  0  0  0  0  0  0  0
   -5.9392    1.3900   -0.6078 H   0  0  0  0  0  0  0  0  0  0  0  0
   -4.4319    2.8621    0.8264 H   0  0  0  0  0  0  0  0  0  0  0  0
  1  2  2  0  0  0  0
  2  3  1  0  0  0  0
  2  4  1  0  0  0  0
  4  5  1  0  0  0  0
  5  6  1  0  0  0  0
  6  7  2  0  0  0  0
  7  8  1  0  0  0  0
  8  9  2  0  0  0  0
  9 10  1  0  0  0  0
  9 11  1  0  0  0  0
 11 12  2  0  0  0  0
  4 13  1  0  0  0  0
 13 14  1  0  0  0  0
 14 15  2  0  0  0  0
 14 16  1  0  0  0  0
 16 17  1  0  0  0  0
 17 18  1  0  0  0  0
 18 19  1  0  0  0  0
 19 20  1  0  0  0  0
 20 21  1  0  0  0  0
 21 22  2  0  0  0  0
 21 23  1  0  0  0  0
 23 24  1  0  0  0  0
 24 25  1  0  0  0  0
 25 26  1  0  0  0  0
 26 27  1  0  0  0  0
  6 12  1  0  0  0  0
 16 20  1  0  0  0  0
 23 27  1  0  0  0  0
  3 28  1  0  0  0  0
  4 29  1  0  0  0  0
  5 30  1  0  0  0  0
  5 31  1  0  0  0  0
  7 32  1  0  0  0  0
  8 33  1  0  0  0  0
 10 34  1  0  0  0  0
 11 35  1  0  0  0  0
 12 36  1  0  0  0  0
 13 37  1  0  0  0  0
 16 38  1  0  0  0  0
 17 39  1  0  0  0  0
 17 40  1  0  0  0  0
 18 41  1  0  0  0  0
 18 42  1  0  0  0  0
 19 43  1  0  0  0  0
 19 44  1  0  0  0  0
 23 45  1  0  0  0  0
 24 46  1  0  0  0  0
 24 47  1  0  0  0  0
 25 48  1  0  0  0  0
 25 49  1  0  0  0  0
 26 50  1  0  0  0  0
 26 51  1  0  0  0  0
 27 52  1  0  0  0  0
M  END
$$$$
PPY.sdf
  PyMOL2.5          3D                             0

 52 54  0  0  1  0  0  0  0  0999 V2000
    0.4759    2.3437   -2.8468 O   0  0  0  0  0  0  0  0  0  0  0  0
    1.5241    1.9400   -2.3657 C   0  0  0  0  0  0  0  0  0  0  0  0
    2.6932    2.1848   -2.9921 O   0  0  0  0  0  0  0  0  0  0  0  0
    1.6853    1.1503   -1.0718 C   0  0  2  0  0  0  0  0  0  0  0  0
    1.2538   -0.3078   -1.2868 C   0  0  0  0  0  0  0  0  0  0  0  0
    2.1751   -1.0849   -2.1964 C   0  0  0  0  0  0  0  0  0  0  0  0
    1.7950   -1.3789   -3.5140 C   0  0  0  0  0  0  0  0  0  0  0  0
    2.6531   -2.0886   -4.3570 C   0  0  0  0  0  0  0  0  0  0  0  0
    3.8924   -2.5031   -3.8805 C   0  0  0  0  0  0  0  0  0  0  0  0
    4.7603   -3.1985   -4.6698 O   0  0  0  0  0  0  0  0  0  0  0  0
    4.2856   -2.2199   -2.5785 C   0  0  0  0  0  0  0  0  0  0  0  0
    3.4286   -1.5113   -1.7357 C   0  0  0  0  0  0  0  0  0  0  0  0
    0.8567    1.7840   -0.0461 N   0  0  0  0  0  0  0  0  0  0  0  0
    1.1106    1.6033    1.2969 C   0  0  0  0  0  0  0  0  0  0  0  0
    2.1125    1.0235    1.7088 O   0  0  0  0  0  0  0  0  0  0  0  0
   -0.0042    2.1415    2.2199 C   0  0  2  0  0  0  0  0  0  0  0  0
    0.4282    2.2134    3.6854 C   0  0  0  0  0  0  0  0  0  0  0  0
    0.0552    0.8409    4.2350 C   0  0  0  0  0  0  0  0  0  0  0  0
   -1.2405    0.5187    3.5080 C   0  0  0  0  0  0  0  0  0  0  0  0
   -1.1288    1.1982    2.2272 N   0  0  0  0  0  0  0  0  0  0  0  0
   -2.0454    1.1770    1.1931 C   0  0  0  0  0  0  0  0  0  0  0  0
   -1.8936    1.9225    0.2214 O   0  0  0  0  0  0  0  0  0  0  0  0
   -3.2153    0.1769    1.3143 C   0  0  2  0  0  0  0  0  0  0  0  0
   -2.7731   -1.2737    1.1124 C   0  0  0  0  0  0  0  0  0  0  0  0
   -3.6988   -1.8317    0.0388 C   0  0  0  0  0  0  0  0  0  0  0  0
   -4.8754   -0.8783    0.0378 C   0  0  0  0  0  0  0  0  0  0  0  0
   -4.2254    0.4022    0.2627 N   0  0  0  0  0  0  0  0  0  0  0  0
    2.4353    2.6865   -3.7927 H   0  0  0  0  0  0  0  0  0  0  0  0
    2.7297    1.2116   -0.7435 H   0  0  0  0  0  0  0  0  0  0  0  0
    0.2294   -0.3422   -1.6828 H   0  0  0  0  0  0  0  0  0  0  0  0
    1.2052   -0.8347   -0.3243 H   0  0  0  0  0  0  0  0  0  0  0  0
    0.8270   -1.0560   -3.8927 H   0  0  0  0  0  0  0  0  0  0  0  0
    2.3385   -2.3058   -5.3726 H   0  0  0  0  0  0  0  0  0  0  0  0
    4.3519   -3.3213   -5.5420 H   0  0  0  0  0  0  0  0  0  0  0  0
    5.2564   -2.5489   -2.2195 H   0  0  0  0  0  0  0  0  0  0  0  0
    3.7451   -1.2943   -0.7170 H   0  0  0  0  0  0  0  0  0  0  0  0
   -0.0996    2.0466   -0.3096 H   0  0  0  0  0  0  0  0  0  0  0  0
   -0.3217    3.1252    1.8551 H   0  0  0  0  0  0  0  0  0  0  0  0
   -0.1596    2.9804    4.2049 H   0  0  0  0  0  0  0  0  0  0  0  0
    1.4876    2.4465    3.8258 H   0  0  0  0  0  0  0  0  0  0  0  0
   -0.0613    0.8349    5.3222 H   0  0  0  0  0  0  0  0  0  0  0  0
    0.8269    0.1080    3.9720 H   0  0  0  0  0  0  0  0  0  0  0  0
   -1.3829   -0.5556    3.3754 H   0  0  0  0  0  0  0  0  0  0  0  0
   -2.1060    0.9328    4.0364 H   0  0  0  0  0  0  0  0  0  0  0  0
   -3.6929    0.3022    2.2931 H   0  0  0  0  0  0  0  0  0  0  0  0
   -1.7253   -1.3754    0.8096 H   0  0  0  0  0  0  0  0  0  0  0  0
   -2.9126   -1.8386    2.0415 H   0  0  0  0  0  0  0  0  0  0  0  0
   -3.9965   -2.8641    0.2449 H   0  0  0  0  0  0  0  0  0  0  0  0
   -3.1909   -1.8127   -0.9336 H   0  0  0  0  0  0  0  0  0  0  0  0
   -5.5722   -1.1094    0.8516 H   0  0  0  0  0  0  0  0  0  0  0  0
   -5.4201   -0.8988   -0.9100 H   0  0  0  0  0  0  0  0  0  0  0  0
   -4.8766    1.1391    0.5213 H   0  0  0  0  0  0  0  0  0  0  0  0
  1  2  2  0  0  0  0
  2  3  1  0  0  0  0
  2  4  1  0  0  0  0
  4  5  1  0  0  0  0
  5  6  1  0  0  0  0
  6  7  2  0  0  0  0
  7  8  1  0  0  0  0
  8  9  2  0  0  0  0
  9 10  1  0  0  0  0
  9 11  1  0  0  0  0
 11 12  2  0  0  0  0
  4 13  1  0  0  0  0
 13 14  1  0  0  0  0
 14 15  2  0  0  0  0
 14 16  1  0  0  0  0
 16 17  1  0  0  0  0
 17 18  1  0  0  0  0
 18 19  1  0  0  0  0
 19 20  1  0  0  0  0
 20 21  1  0  0  0  0
 21 22  2  0  0  0  0
 21 23  1  0  0  0  0
 23 24  1  0  0  0  0
 24 25  1  0  0  0  0
 25 26  1  0  0  0  0
 26 27  1  0  0  0  0
  6 12  1  0  0  0  0
 16 20  1  0  0  0  0
 23 27  1  0  0  0  0
  3 28  1  0  0  0  0
  4 29  1  0  0  0  0
  5 30  1  0  0  0  0
  5 31  1  0  0  0  0
  7 32  1  0  0  0  0
  8 33  1  0  0  0  0
 10 34  1  0  0  0  0
 11 35  1  0  0  0  0
 12 36  1  0  0  0  0
 13 37  1  0  0  0  0
 16 38  1  0  0  0  0
 17 39  1  0  0  0  0
 17 40  1  0  0  0  0
 18 41  1  0  0  0  0
 18 42  1  0  0  0  0
 19 43  1  0  0  0  0
 19 44  1  0  0  0  0
 23 45  1  0  0  0  0
 24 46  1  0  0  0  0
 24 47  1  0  0  0  0
 25 48  1  0  0  0  0
 25 49  1  0  0  0  0
 26 50  1  0  0  0  0
 26 51  1  0  0  0  0
 27 52  1  0  0  0  0
M  END
$$$$
PPY.sdf
  PyMOL2.5          3D                             0

 52 54  0  0  1  0  0  0  0  0999 V2000
    0.4325    0.0635   -3.6029 O   0  0  0  0  0  0  0  0  0  0  0  0
    0.6139    0.6628   -2.5557 C   0  0  0  0  0  0  0  0  0  0  0  0
   -0.1845    1.7064   -2.2260 O   0  0  0  0  0  0  0  0  0  0  0  0
    1.7614    0.4679   -1.5507 C   0  0  2  0  0  0  0  0  0  0  0  0
    2.2532   -0.9879   -1.4898 C   0  0  0  0  0  0  0  0  0  0  0  0
    3.4090   -1.2464   -2.4341 C   0  0  0  0  0  0  0  0  0  0  0  0
    4.7276   -0.9975   -2.0226 C   0  0  0  0  0  0  0  0  0  0  0  0
    5.7970   -1.2174   -2.8938 C   0  0  0  0  0  0  0  0  0  0  0  0
    5.5464   -1.6834   -4.1801 C   0  0  0  0  0  0  0  0  0  0  0  0
    6.5602   -1.9111   -5.0631 O   0  0  0  0  0  0  0  0  0  0  0  0
    4.2477   -1.9315   -4.6059 C   0  0  0  0  0  0  0  0  0  0  0  0
    3.1792   -1.7137   -3.7348 C   0  0  0  0  0  0  0  0  0  0  0  0
    1.3842    1.0375   -0.2418 N   0  0  0  0  0  0  0  0  0  0  0  0
    0.4643    0.3852    0.5639 C   0  0  0  0  0  0  0  0  0  0  0  0
    0.0913   -0.7679    0.3585 O   0  0  0  0  0  0  0  0  0  0  0  0
    0.0176    1.2045    1.7918 C   0  0  2  0  0  0  0  0  0  0  0  0
    0.8309    0.7644    3.0155 C   0  0  0  0  0  0  0  0  0  0  0  0
   -0.2000    0.6675    4.1348 C   0  0  0  0  0  0  0  0  0  0  0  0
   -1.4629    0.2278    3.4129 C   0  0  0  0  0  0  0  0  0  0  0  0
   -1.3698    0.9030    2.1340 N   0  0  0  0  0  0  0  0  0  0  0  0
   -2.3975    1.3562    1.3301 C   0  0  0  0  0  0  0  0  0  0  0  0
   -2.1578    2.1128    0.3849 O   0  0  0  0  0  0  0  0  0  0  0  0
   -3.8283    0.9123    1.7022 C   0  0  2  0  0  0  0  0  0  0  0  0
   -4.0335   -0.6020    1.6772 C   0  0  0  0  0  0  0  0  0  0  0  0
   -5.3579   -0.8230    0.9533 C   0  0  0  0  0  0  0  0  0  0  0  0
   -5.9846    0.5545    0.8747 C   0  0  0  0  0  0  0  0  0  0  0  0
   -4.8201    1.4111    0.7274 N   0  0  0  0  0  0  0  0  0  0  0  0
   -0.9225    1.6825   -2.8706 H   0  0  0  0  0  0  0  0  0  0  0  0
    2.5699    1.1240   -1.8988 H   0  0  0  0  0  0  0  0  0  0  0  0
    1.4423   -1.6934   -1.7116 H   0  0  0  0  0  0  0  0  0  0  0  0
    2.5984   -1.2361   -0.4772 H   0  0  0  0  0  0  0  0  0  0  0  0
    4.9283   -0.6339   -1.0171 H   0  0  0  0  0  0  0  0  0  0  0  0
    6.8084   -1.0215   -2.5532 H   0  0  0  0  0  0  0  0  0  0  0  0
    7.4024   -1.7110   -4.6240 H   0  0  0  0  0  0  0  0  0  0  0  0
    4.0642   -2.2933   -5.6135 H   0  0  0  0  0  0  0  0  0  0  0  0
    2.1660   -1.9095   -4.0815 H   0  0  0  0  0  0  0  0  0  0  0  0
    1.2439    2.0420   -0.2732 H   0  0  0  0  0  0  0  0  0  0  0  0
    0.1128    2.2798    1.6053 H   0  0  0  0  0  0  0  0  0  0  0  0
    1.3006   -0.2147    2.8602 H   0  0  0  0  0  0  0  0  0  0  0  0
    1.6287    1.4753    3.2531 H   0  0  0  0  0  0  0  0  0  0  0  0
   -0.3495    1.6584    4.5809 H   0  0  0  0  0  0  0  0  0  0  0  0
    0.0962   -0.0237    4.9285 H   0  0  0  0  0  0  0  0  0  0  0  0
   -2.3689    0.4990    3.9590 H   0  0  0  0  0  0  0  0  0  0  0  0
   -1.4559   -0.8513    3.2262 H   0  0  0  0  0  0  0  0  0  0  0  0
   -4.0733    1.3224    2.6894 H   0  0  0  0  0  0  0  0  0  0  0  0
   -3.2271   -1.1377    1.1639 H   0  0  0  0  0  0  0  0  0  0  0  0
   -4.0983   -0.9934    2.6988 H   0  0  0  0  0  0  0  0  0  0  0  0
   -5.9982   -1.5407    1.4751 H   0  0  0  0  0  0  0  0  0  0  0  0
   -5.1656   -1.2129   -0.0539 H   0  0  0  0  0  0  0  0  0  0  0  0
   -6.5291    0.7929    1.7957 H   0  0  0  0  0  0  0  0  0  0  0  0
   -6.6700    0.6461    0.0278 H   0  0  0  0  0  0  0  0  0  0  0  0
   -5.0235    2.3950    0.8847 H   0  0  0  0  0  0  0  0  0  0  0  0
  1  2  2  0  0  0  0
  2  3  1  0  0  0  0
  2  4  1  0  0  0  0
  4  5  1  0  0  0  0
  5  6  1  0  0  0  0
  6  7  2  0  0  0  0
  7  8  1  0  0  0  0
  8  9  2  0  0  0  0
  9 10  1  0  0  0  0
  9 11  1  0  0  0  0
 11 12  2  0  0  0  0
  4 13  1  0  0  0  0
 13 14  1  0  0  0  0
 14 15  2  0  0  0  0
 14 16  1  0  0  0  0
 16 17  1  0  0  0  0
 17 18  1  0  0  0  0
 18 19  1  0  0  0  0
 19 20  1  0  0  0  0
 20 21  1  0  0  0  0
 21 22  2  0  0  0  0
 21 23  1  0  0  0  0
 23 24  1  0  0  0  0
 24 25  1  0  0  0  0
 25 26  1  0  0  0  0
 26 27  1  0  0  0  0
  6 12  1  0  0  0  0
 16 20  1  0  0  0  0
 23 27  1  0  0  0  0
  3 28  1  0  0  0  0
  4 29  1  0  0  0  0
  5 30  1  0  0  0  0
  5 31  1  0  0  0  0
  7 32  1  0  0  0  0
  8 33  1  0  0  0  0
 10 34  1  0  0  0  0
 11 35  1  0  0  0  0
 12 36  1  0  0  0  0
 13 37  1  0  0  0  0
 16 38  1  0  0  0  0
 17 39  1  0  0  0  0
 17 40  1  0  0  0  0
 18 41  1  0  0  0  0
 18 42  1  0  0  0  0
 19 43  1  0  0  0  0
 19 44  1  0  0  0  0
 23 45  1  0  0  0  0
 24 46  1  0  0  0  0
 24 47  1  0  0  0  0
 25 48  1  0  0  0  0
 25 49  1  0  0  0  0
 26 50  1  0  0  0  0
 26 51  1  0  0  0  0
 27 52  1  0  0  0  0
M  END
$$$$
PPY.sdf
  PyMOL2.5          3D                             0

 52 54  0  0  1  0  0  0  0  0999 V2000
    3.1354    3.1740   -0.5913 O   0  0  0  0  0  0  0  0  0  0  0  0
    2.8851    2.2521   -1.3597 C   0  0  0  0  0  0  0  0  0  0  0  0
    3.0922    2.4183   -2.6779 O   0  0  0  0  0  0  0  0  0  0  0  0
    2.4299    0.8508   -0.9330 C   0  0  2  0  0  0  0  0  0  0  0  0
    1.6787    0.0490   -2.0129 C   0  0  0  0  0  0  0  0  0  0  0  0
    2.5959   -0.8590   -2.8072 C   0  0  0  0  0  0  0  0  0  0  0  0
    3.0254   -2.0785   -2.2621 C   0  0  0  0  0  0  0  0  0  0  0  0
    3.8820   -2.9119   -2.9823 C   0  0  0  0  0  0  0  0  0  0  0  0
    4.3089   -2.5312   -4.2481 C   0  0  0  0  0  0  0  0  0  0  0  0
    5.1449   -3.3750   -4.9178 O   0  0  0  0  0  0  0  0  0  0  0  0
    3.8921   -1.3286   -4.8087 C   0  0  0  0  0  0  0  0  0  0  0  0
    3.0354   -0.4941   -4.0870 C   0  0  0  0  0  0  0  0  0  0  0  0
    1.6687    0.9923    0.3189 N   0  0  0  0  0  0  0  0  0  0  0  0
    0.3897    1.5165    0.3221 C   0  0  0  0  0  0  0  0  0  0  0  0
   -0.1826    1.8453   -0.7162 O   0  0  0  0  0  0  0  0  0  0  0  0
   -0.2223    1.7708    1.7186 C   0  0  2  0  0  0  0  0  0  0  0  0
    0.3412    1.0467    2.9355 C   0  0  0  0  0  0  0  0  0  0  0  0
   -0.7432    1.2495    4.0081 C   0  0  0  0  0  0  0  0  0  0  0  0
   -1.9596    1.8196    3.2649 C   0  0  0  0  0  0  0  0  0  0  0  0
   -1.6653    1.5684    1.8655 N   0  0  0  0  0  0  0  0  0  0  0  0
   -2.2128    0.4021    1.3096 C   0  0  0  0  0  0  0  0  0  0  0  0
   -1.5297   -0.4750    0.7766 O   0  0  0  0  0  0  0  0  0  0  0  0
   -3.7518    0.2783    1.3871 C   0  0  2  0  0  0  0  0  0  0  0  0
   -4.1575   -0.7739    2.4178 C   0  0  0  0  0  0  0  0  0  0  0  0
   -4.6100   -1.9588    1.5873 C   0  0  0  0  0  0  0  0  0  0  0  0
   -5.1859   -1.2998    0.3542 C   0  0  0  0  0  0  0  0  0  0  0  0
   -4.2758   -0.1878    0.0731 N   0  0  0  0  0  0  0  0  0  0  0  0
    3.3646    3.3565   -2.7565 H   0  0  0  0  0  0  0  0  0  0  0  0
    3.3447    0.3194   -0.6414 H   0  0  0  0  0  0  0  0  0  0  0  0
    0.9155   -0.5933   -1.5524 H   0  0  0  0  0  0  0  0  0  0  0  0
    1.1334    0.7107   -2.6973 H   0  0  0  0  0  0  0  0  0  0  0  0
    2.6883   -2.3893   -1.2755 H   0  0  0  0  0  0  0  0  0  0  0  0
    4.2105   -3.8567   -2.5592 H   0  0  0  0  0  0  0  0  0  0  0  0
    5.3275   -2.9949   -5.7925 H   0  0  0  0  0  0  0  0  0  0  0  0
    4.2184   -1.0239   -5.7977 H   0  0  0  0  0  0  0  0  0  0  0  0
    2.7107    0.4454   -4.5300 H   0  0  0  0  0  0  0  0  0  0  0  0
    2.2209    1.1107    1.1569 H   0  0  0  0  0  0  0  0  0  0  0  0
   -0.0614    2.8493    1.8738 H   0  0  0  0  0  0  0  0  0  0  0  0
    1.3070    1.4516    3.2539 H   0  0  0  0  0  0  0  0  0  0  0  0
    0.4773   -0.0230    2.7371 H   0  0  0  0  0  0  0  0  0  0  0  0
   -0.9858    0.2909    4.4801 H   0  0  0  0  0  0  0  0  0  0  0  0
   -0.4142    1.9336    4.7970 H   0  0  0  0  0  0  0  0  0  0  0  0
   -2.8928    1.3718    3.6114 H   0  0  0  0  0  0  0  0  0  0  0  0
   -2.0175    2.9051    3.4045 H   0  0  0  0  0  0  0  0  0  0  0  0
   -4.1919    1.2537    1.6199 H   0  0  0  0  0  0  0  0  0  0  0  0
   -3.3562   -1.0565    3.1079 H   0  0  0  0  0  0  0  0  0  0  0  0
   -5.0031   -0.4021    3.0093 H   0  0  0  0  0  0  0  0  0  0  0  0
   -3.7502   -2.5861    1.3228 H   0  0  0  0  0  0  0  0  0  0  0  0
   -5.3410   -2.5795    2.1132 H   0  0  0  0  0  0  0  0  0  0  0  0
   -5.2532   -1.9898   -0.4920 H   0  0  0  0  0  0  0  0  0  0  0  0
   -6.1896   -0.9079    0.5547 H   0  0  0  0  0  0  0  0  0  0  0  0
   -3.4708   -0.5562   -0.4489 H   0  0  0  0  0  0  0  0  0  0  0  0
  1  2  2  0  0  0  0
  2  3  1  0  0  0  0
  2  4  1  0  0  0  0
  4  5  1  0  0  0  0
  5  6  1  0  0  0  0
  6  7  2  0  0  0  0
  7  8  1  0  0  0  0
  8  9  2  0  0  0  0
  9 10  1  0  0  0  0
  9 11  1  0  0  0  0
 11 12  2  0  0  0  0
  4 13  1  0  0  0  0
 13 14  1  0  0  0  0
 14 15  2  0  0  0  0
 14 16  1  0  0  0  0
 16 17  1  0  0  0  0
 17 18  1  0  0  0  0
 18 19  1  0  0  0  0
 19 20  1  0  0  0  0
 20 21  1  0  0  0  0
 21 22  2  0  0  0  0
 21 23  1  0  0  0  0
 23 24  1  0  0  0  0
 24 25  1  0  0  0  0
 25 26  1  0  0  0  0
 26 27  1  0  0  0  0
  6 12  1  0  0  0  0
 16 20  1  0  0  0  0
 23 27  1  0  0  0  0
  3 28  1  0  0  0  0
  4 29  1  0  0  0  0
  5 30  1  0  0  0  0
  5 31  1  0  0  0  0
  7 32  1  0  0  0  0
  8 33  1  0  0  0  0
 10 34  1  0  0  0  0
 11 35  1  0  0  0  0
 12 36  1  0  0  0  0
 13 37  1  0  0  0  0
 16 38  1  0  0  0  0
 17 39  1  0  0  0  0
 17 40  1  0  0  0  0
 18 41  1  0  0  0  0
 18 42  1  0  0  0  0
 19 43  1  0  0  0  0
 19 44  1  0  0  0  0
 23 45  1  0  0  0  0
 24 46  1  0  0  0  0
 24 47  1  0  0  0  0
 25 48  1  0  0  0  0
 25 49  1  0  0  0  0
 26 50  1  0  0  0  0
 26 51  1  0  0  0  0
 27 52  1  0  0  0  0
M  END
$$$$
PPY.sdf
  PyMOL2.5          3D                             0

 52 54  0  0  1  0  0  0  0  0999 V2000
    3.0983    2.0871   -0.5262 O   0  0  0  0  0  0  0  0  0  0  0  0
    3.1059    0.8774   -0.3369 C   0  0  0  0  0  0  0  0  0  0  0  0
    3.9869    0.3230    0.5163 O   0  0  0  0  0  0  0  0  0  0  0  0
    2.1845   -0.1335   -1.0149 C   0  0  2  0  0  0  0  0  0  0  0  0
    2.7217   -0.4880   -2.4063 C   0  0  0  0  0  0  0  0  0  0  0  0
    3.9951   -1.2991   -2.3850 C   0  0  0  0  0  0  0  0  0  0  0  0
    3.9714   -2.6455   -1.9945 C   0  0  0  0  0  0  0  0  0  0  0  0
    5.1491   -3.3935   -1.9676 C   0  0  0  0  0  0  0  0  0  0  0  0
    6.3511   -2.7998   -2.3312 C   0  0  0  0  0  0  0  0  0  0  0  0
    7.4770   -3.5677   -2.2917 O   0  0  0  0  0  0  0  0  0  0  0  0
    6.3967   -1.4659   -2.7223 C   0  0  0  0  0  0  0  0  0  0  0  0
    5.2182   -0.7164   -2.7488 C   0  0  0  0  0  0  0  0  0  0  0  0
    0.8682    0.5092   -1.1317 N   0  0  0  0  0  0  0  0  0  0  0  0
   -0.0639    0.3928   -0.1152 C   0  0  0  0  0  0  0  0  0  0  0  0
    0.1078   -0.3432    0.8532 O   0  0  0  0  0  0  0  0  0  0  0  0
   -1.2817    1.3320   -0.2795 C   0  0  2  0  0  0  0  0  0  0  0  0
   -0.9518    2.7282    0.2456 C   0  0  0  0  0  0  0  0  0  0  0  0
   -1.2948    2.6229    1.7279 C   0  0  0  0  0  0  0  0  0  0  0  0
   -2.5100    1.7010    1.7542 C   0  0  0  0  0  0  0  0  0  0  0  0
   -2.4142    0.9126    0.5349 N   0  0  0  0  0  0  0  0  0  0  0  0
   -3.2280   -0.1117    0.1085 C   0  0  0  0  0  0  0  0  0  0  0  0
   -3.0146   -0.6667   -0.9773 O   0  0  0  0  0  0  0  0  0  0  0  0
   -4.4597   -0.5311    0.9289 C   0  0  2  0  0  0  0  0  0  0  0  0
   -5.5928    0.4905    0.9236 C   0  0  0  0  0  0  0  0  0  0  0  0
   -6.0393    0.5897    2.3778 C   0  0  0  0  0  0  0  0  0  0  0  0
   -5.4390   -0.6358    3.0410 C   0  0  0  0  0  0  0  0  0  0  0  0
   -4.1601   -0.7704    2.3550 N   0  0  0  0  0  0  0  0  0  0  0  0
    4.4934    1.0743    0.8859 H   0  0  0  0  0  0  0  0  0  0  0  0
    2.0916   -1.0199   -0.3778 H   0  0  0  0  0  0  0  0  0  0  0  0
    2.8787    0.4269   -2.9939 H   0  0  0  0  0  0  0  0  0  0  0  0
    1.9646   -1.0598   -2.9601 H   0  0  0  0  0  0  0  0  0  0  0  0
    3.0363   -3.1231   -1.7081 H   0  0  0  0  0  0  0  0  0  0  0  0
    5.1278   -4.4361   -1.6634 H   0  0  0  0  0  0  0  0  0  0  0  0
    8.2316   -3.0246   -2.5712 H   0  0  0  0  0  0  0  0  0  0  0  0
    7.3318   -0.9953   -3.0084 H   0  0  0  0  0  0  0  0  0  0  0  0
    5.2630    0.3264   -3.0558 H   0  0  0  0  0  0  0  0  0  0  0  0
    0.8261    1.3469   -1.7003 H   0  0  0  0  0  0  0  0  0  0  0  0
   -1.5648    1.3571   -1.3383 H   0  0  0  0  0  0  0  0  0  0  0  0
    0.0861    3.0335    0.0835 H   0  0  0  0  0  0  0  0  0  0  0  0
   -1.6078    3.4691   -0.2274 H   0  0  0  0  0  0  0  0  0  0  0  0
   -0.4619    2.1597    2.2707 H   0  0  0  0  0  0  0  0  0  0  0  0
   -1.4964    3.5941    2.1886 H   0  0  0  0  0  0  0  0  0  0  0  0
   -3.4390    2.2768    1.7258 H   0  0  0  0  0  0  0  0  0  0  0  0
   -2.4967    1.0672    2.6425 H   0  0  0  0  0  0  0  0  0  0  0  0
   -4.8261   -1.4732    0.4984 H   0  0  0  0  0  0  0  0  0  0  0  0
   -6.4209    0.1215    0.3065 H   0  0  0  0  0  0  0  0  0  0  0  0
   -5.3066    1.4709    0.5303 H   0  0  0  0  0  0  0  0  0  0  0  0
   -7.1288    0.6227    2.4735 H   0  0  0  0  0  0  0  0  0  0  0  0
   -5.6334    1.5035    2.8285 H   0  0  0  0  0  0  0  0  0  0  0  0
   -6.0646   -1.5199    2.8716 H   0  0  0  0  0  0  0  0  0  0  0  0
   -5.3095   -0.4980    4.1179 H   0  0  0  0  0  0  0  0  0  0  0  0
   -3.7564   -1.6985    2.4775 H   0  0  0  0  0  0  0  0  0  0  0  0
  1  2  2  0  0  0  0
  2  3  1  0  0  0  0
  2  4  1  0  0  0  0
  4  5  1  0  0  0  0
  5  6  1  0  0  0  0
  6  7  2  0  0  0  0
  7  8  1  0  0  0  0
  8  9  2  0  0  0  0
  9 10  1  0  0  0  0
  9 11  1  0  0  0  0
 11 12  2  0  0  0  0
  4 13  1  0  0  0  0
 13 14  1  0  0  0  0
 14 15  2  0  0  0  0
 14 16  1  0  0  0  0
 16 17  1  0  0  0  0
 17 18  1  0  0  0  0
 18 19  1  0  0  0  0
 19 20  1  0  0  0  0
 20 21  1  0  0  0  0
 21 22  2  0  0  0  0
 21 23  1  0  0  0  0
 23 24  1  0  0  0  0
 24 25  1  0  0  0  0
 25 26  1  0  0  0  0
 26 27  1  0  0  0  0
  6 12  1  0  0  0  0
 16 20  1  0  0  0  0
 23 27  1  0  0  0  0
  3 28  1  0  0  0  0
  4 29  1  0  0  0  0
  5 30  1  0  0  0  0
  5 31  1  0  0  0  0
  7 32  1  0  0  0  0
  8 33  1  0  0  0  0
 10 34  1  0  0  0  0
 11 35  1  0  0  0  0
 12 36  1  0  0  0  0
 13 37  1  0  0  0  0
 16 38  1  0  0  0  0
 17 39  1  0  0  0  0
 17 40  1  0  0  0  0
 18 41  1  0  0  0  0
 18 42  1  0  0  0  0
 19 43  1  0  0  0  0
 19 44  1  0  0  0  0
 23 45  1  0  0  0  0
 24 46  1  0  0  0  0
 24 47  1  0  0  0  0
 25 48  1  0  0  0  0
 25 49  1  0  0  0  0
 26 50  1  0  0  0  0
 26 51  1  0  0  0  0
 27 52  1  0  0  0  0
M  END
$$$$
PPY.sdf
  PyMOL2.5          3D                             0

 52 54  0  0  1  0  0  0  0  0999 V2000
    3.0412   -2.6716   -1.5657 O   0  0  0  0  0  0  0  0  0  0  0  0
    1.8569   -2.3792   -1.4842 C   0  0  0  0  0  0  0  0  0  0  0  0
    0.9348   -3.2443   -1.9665 O   0  0  0  0  0  0  0  0  0  0  0  0
    1.2738   -1.0498   -0.9735 C   0  0  2  0  0  0  0  0  0  0  0  0
    2.0589   -0.5290    0.2430 C   0  0  0  0  0  0  0  0  0  0  0  0
    3.1639    0.4284   -0.1479 C   0  0  0  0  0  0  0  0  0  0  0  0
    4.4825   -0.0220   -0.2980 C   0  0  0  0  0  0  0  0  0  0  0  0
    5.4954    0.8622   -0.6759 C   0  0  0  0  0  0  0  0  0  0  0  0
    5.1871    2.1989   -0.9049 C   0  0  0  0  0  0  0  0  0  0  0  0
    6.1453    3.0953   -1.2761 O   0  0  0  0  0  0  0  0  0  0  0  0
    3.8855    2.6633   -0.7640 C   0  0  0  0  0  0  0  0  0  0  0  0
    2.8734    1.7797   -0.3878 C   0  0  0  0  0  0  0  0  0  0  0  0
   -0.1693   -1.1371   -0.7311 N   0  0  0  0  0  0  0  0  0  0  0  0
   -0.7028   -1.8579    0.3129 C   0  0  0  0  0  0  0  0  0  0  0  0
   -0.0178   -2.5388    1.0736 O   0  0  0  0  0  0  0  0  0  0  0  0
   -2.2460   -1.8661    0.3800 C   0  0  2  0  0  0  0  0  0  0  0  0
   -2.7759   -3.1306   -0.3036 C   0  0  0  0  0  0  0  0  0  0  0  0
   -2.9729   -2.6972   -1.7524 C   0  0  0  0  0  0  0  0  0  0  0  0
   -3.4609   -1.2644   -1.6190 C   0  0  0  0  0  0  0  0  0  0  0  0
   -2.8788   -0.7766   -0.3779 N   0  0  0  0  0  0  0  0  0  0  0  0
   -3.1637    0.5057    0.0600 C   0  0  0  0  0  0  0  0  0  0  0  0
   -3.7829    1.2860   -0.6679 O   0  0  0  0  0  0  0  0  0  0  0  0
   -2.7016    0.9086    1.4839 C   0  0  2  0  0  0  0  0  0  0  0  0
   -3.1997    2.2973    1.8860 C   0  0  0  0  0  0  0  0  0  0  0  0
   -2.0227    3.2019    1.5865 C   0  0  0  0  0  0  0  0  0  0  0  0
   -0.8476    2.3286    1.9628 C   0  0  0  0  0  0  0  0  0  0  0  0
   -1.2214    0.9814    1.5223 N   0  0  0  0  0  0  0  0  0  0  0  0
    1.4685   -4.0180   -2.2410 H   0  0  0  0  0  0  0  0  0  0  0  0
    1.3597   -0.3535   -1.8176 H   0  0  0  0  0  0  0  0  0  0  0  0
    2.4817   -1.3573    0.8262 H   0  0  0  0  0  0  0  0  0  0  0  0
    1.3979    0.0065    0.9351 H   0  0  0  0  0  0  0  0  0  0  0  0
    4.7282   -1.0691   -0.1282 H   0  0  0  0  0  0  0  0  0  0  0  0
    6.5082    0.4889   -0.7877 H   0  0  0  0  0  0  0  0  0  0  0  0
    6.9945    2.6279   -1.3364 H   0  0  0  0  0  0  0  0  0  0  0  0
    3.6592    3.7095   -0.9478 H   0  0  0  0  0  0  0  0  0  0  0  0
    1.8568    2.1522   -0.2829 H   0  0  0  0  0  0  0  0  0  0  0  0
   -0.7686   -0.4152   -1.1179 H   0  0  0  0  0  0  0  0  0  0  0  0
   -2.5392   -1.8232    1.4326 H   0  0  0  0  0  0  0  0  0  0  0  0
   -2.1087   -3.9937   -0.2186 H   0  0  0  0  0  0  0  0  0  0  0  0
   -3.7467   -3.4043    0.1278 H   0  0  0  0  0  0  0  0  0  0  0  0
   -3.6801   -3.3320   -2.2936 H   0  0  0  0  0  0  0  0  0  0  0  0
   -2.0171   -2.7247   -2.2879 H   0  0  0  0  0  0  0  0  0  0  0  0
   -3.1574   -0.6326   -2.4593 H   0  0  0  0  0  0  0  0  0  0  0  0
   -4.5520   -1.2249   -1.5229 H   0  0  0  0  0  0  0  0  0  0  0  0
   -3.0869    0.1706    2.1954 H   0  0  0  0  0  0  0  0  0  0  0  0
   -4.1074    2.6256    1.3720 H   0  0  0  0  0  0  0  0  0  0  0  0
   -3.4016    2.3162    2.9648 H   0  0  0  0  0  0  0  0  0  0  0  0
   -2.0559    4.1319    2.1610 H   0  0  0  0  0  0  0  0  0  0  0  0
   -1.9940    3.4525    0.5193 H   0  0  0  0  0  0  0  0  0  0  0  0
   -0.7029    2.3348    3.0497 H   0  0  0  0  0  0  0  0  0  0  0  0
    0.0813    2.6591    1.4908 H   0  0  0  0  0  0  0  0  0  0  0  0
   -0.8518    0.3003    2.1866 H   0  0  0  0  0  0  0  0  0  0  0  0
  1  2  2  0  0  0  0
  2  3  1  0  0  0  0
  2  4  1  0  0  0  0
  4  5  1  0  0  0  0
  5  6  1  0  0  0  0
  6  7  2  0  0  0  0
  7  8  1  0  0  0  0
  8  9  2  0  0  0  0
  9 10  1  0  0  0  0
  9 11  1  0  0  0  0
 11 12  2  0  0  0  0
  4 13  1  0  0  0  0
 13 14  1  0  0  0  0
 14 15  2  0  0  0  0
 14 16  1  0  0  0  0
 16 17  1  0  0  0  0
 17 18  1  0  0  0  0
 18 19  1  0  0  0  0
 19 20  1  0  0  0  0
 20 21  1  0  0  0  0
 21 22  2  0  0  0  0
 21 23  1  0  0  0  0
 23 24  1  0  0  0  0
 24 25  1  0  0  0  0
 25 26  1  0  0  0  0
 26 27  1  0  0  0  0
  6 12  1  0  0  0  0
 16 20  1  0  0  0  0
 23 27  1  0  0  0  0
  3 28  1  0  0  0  0
  4 29  1  0  0  0  0
  5 30  1  0  0  0  0
  5 31  1  0  0  0  0
  7 32  1  0  0  0  0
  8 33  1  0  0  0  0
 10 34  1  0  0  0  0
 11 35  1  0  0  0  0
 12 36  1  0  0  0  0
 13 37  1  0  0  0  0
 16 38  1  0  0  0  0
 17 39  1  0  0  0  0
 17 40  1  0  0  0  0
 18 41  1  0  0  0  0
 18 42  1  0  0  0  0
 19 43  1  0  0  0  0
 19 44  1  0  0  0  0
 23 45  1  0  0  0  0
 24 46  1  0  0  0  0
 24 47  1  0  0  0  0
 25 48  1  0  0  0  0
 25 49  1  0  0  0  0
 26 50  1  0  0  0  0
 26 51  1  0  0  0  0
 27 52  1  0  0  0  0
M  END
$$$$
PPY.sdf
  PyMOL2.5          3D                             0

 52 54  0  0  1  0  0  0  0  0999 V2000
    0.9041   -1.4751    3.1645 O   0  0  0  0  0  0  0  0  0  0  0  0
    1.7805   -1.7100    2.3440 C   0  0  0  0  0  0  0  0  0  0  0  0
    2.9057   -2.3531    2.7249 O   0  0  0  0  0  0  0  0  0  0  0  0
    1.7999   -1.3119    0.8667 C   0  0  2  0  0  0  0  0  0  0  0  0
    2.6452   -0.0406    0.7155 C   0  0  0  0  0  0  0  0  0  0  0  0
    2.8067    0.3936   -0.7237 C   0  0  0  0  0  0  0  0  0  0  0  0
    1.9069    1.3057   -1.2965 C   0  0  0  0  0  0  0  0  0  0  0  0
    2.0384    1.6898   -2.6323 C   0  0  0  0  0  0  0  0  0  0  0  0
    3.0716    1.1591   -3.3968 C   0  0  0  0  0  0  0  0  0  0  0  0
    3.2372    1.5066   -4.7050 O   0  0  0  0  0  0  0  0  0  0  0  0
    3.9694    0.2514   -2.8484 C   0  0  0  0  0  0  0  0  0  0  0  0
    3.8371   -0.1342   -1.5135 C   0  0  0  0  0  0  0  0  0  0  0  0
    0.4291   -1.1003    0.4072 N   0  0  0  0  0  0  0  0  0  0  0  0
   -0.3779   -2.1488    0.0480 C   0  0  0  0  0  0  0  0  0  0  0  0
    0.0169   -3.3138    0.0769 O   0  0  0  0  0  0  0  0  0  0  0  0
   -1.8462   -1.7808   -0.2870 C   0  0  2  0  0  0  0  0  0  0  0  0
   -2.3047   -2.5935   -1.5050 C   0  0  0  0  0  0  0  0  0  0  0  0
   -1.8722   -1.7116   -2.6717 C   0  0  0  0  0  0  0  0  0  0  0  0
   -2.1828   -0.3113   -2.1681 C   0  0  0  0  0  0  0  0  0  0  0  0
   -2.0746   -0.3899   -0.7193 N   0  0  0  0  0  0  0  0  0  0  0  0
   -2.4407    0.7049    0.0448 C   0  0  0  0  0  0  0  0  0  0  0  0
   -2.7717    1.7672   -0.4896 O   0  0  0  0  0  0  0  0  0  0  0  0
   -2.3610    0.5704    1.5864 C   0  0  2  0  0  0  0  0  0  0  0  0
   -3.1003    1.6813    2.3313 C   0  0  0  0  0  0  0  0  0  0  0  0
   -2.0249    2.6503    2.8036 C   0  0  0  0  0  0  0  0  0  0  0  0
   -0.7448    2.1612    2.1598 C   0  0  0  0  0  0  0  0  0  0  0  0
   -0.9416    0.7148    1.9994 N   0  0  0  0  0  0  0  0  0  0  0  0
    2.7453   -2.5803    3.6648 H   0  0  0  0  0  0  0  0  0  0  0  0
    2.2258   -2.1441    0.2929 H   0  0  0  0  0  0  0  0  0  0  0  0
    3.6416   -0.1936    1.1510 H   0  0  0  0  0  0  0  0  0  0  0  0
    2.2038    0.7836    1.2924 H   0  0  0  0  0  0  0  0  0  0  0  0
    1.0886    1.7149   -0.7073 H   0  0  0  0  0  0  0  0  0  0  0  0
    1.3278    2.3941   -3.0527 H   0  0  0  0  0  0  0  0  0  0  0  0
    2.5460    2.1462   -4.9419 H   0  0  0  0  0  0  0  0  0  0  0  0
    4.7688   -0.1579   -3.4594 H   0  0  0  0  0  0  0  0  0  0  0  0
    4.5419   -0.8505   -1.0977 H   0  0  0  0  0  0  0  0  0  0  0  0
   -0.0514   -0.2824    0.7890 H   0  0  0  0  0  0  0  0  0  0  0  0
   -2.4530   -2.0204    0.5899 H   0  0  0  0  0  0  0  0  0  0  0  0
   -1.8805   -3.5993   -1.5690 H   0  0  0  0  0  0  0  0  0  0  0  0
   -3.3982   -2.6847   -1.5017 H   0  0  0  0  0  0  0  0  0  0  0  0
   -2.3952   -1.9482   -3.6023 H   0  0  0  0  0  0  0  0  0  0  0  0
   -0.7954   -1.8206   -2.8476 H   0  0  0  0  0  0  0  0  0  0  0  0
   -3.2075   -0.0186   -2.4247 H   0  0  0  0  0  0  0  0  0  0  0  0
   -1.4919    0.4420   -2.5589 H   0  0  0  0  0  0  0  0  0  0  0  0
   -2.7625   -0.4004    1.8866 H   0  0  0  0  0  0  0  0  0  0  0  0
   -3.8477    2.1913    1.7152 H   0  0  0  0  0  0  0  0  0  0  0  0
   -3.6231    1.2736    3.2049 H   0  0  0  0  0  0  0  0  0  0  0  0
   -2.2534    3.6830    2.5227 H   0  0  0  0  0  0  0  0  0  0  0  0
   -1.9450    2.6091    3.8964 H   0  0  0  0  0  0  0  0  0  0  0  0
   -0.5925    2.6295    1.1809 H   0  0  0  0  0  0  0  0  0  0  0  0
    0.1350    2.3784    2.7730 H   0  0  0  0  0  0  0  0  0  0  0  0
   -0.8326    0.2743    2.9212 H   0  0  0  0  0  0  0  0  0  0  0  0
  1  2  2  0  0  0  0
  2  3  1  0  0  0  0
  2  4  1  0  0  0  0
  4  5  1  0  0  0  0
  5  6  1  0  0  0  0
  6  7  2  0  0  0  0
  7  8  1  0  0  0  0
  8  9  2  0  0  0  0
  9 10  1  0  0  0  0
  9 11  1  0  0  0  0
 11 12  2  0  0  0  0
  4 13  1  0  0  0  0
 13 14  1  0  0  0  0
 14 15  2  0  0  0  0
 14 16  1  0  0  0  0
 16 17  1  0  0  0  0
 17 18  1  0  0  0  0
 18 19  1  0  0  0  0
 19 20  1  0  0  0  0
 20 21  1  0  0  0  0
 21 22  2  0  0  0  0
 21 23  1  0  0  0  0
 23 24  1  0  0  0  0
 24 25  1  0  0  0  0
 25 26  1  0  0  0  0
 26 27  1  0  0  0  0
  6 12  1  0  0  0  0
 16 20  1  0  0  0  0
 23 27  1  0  0  0  0
  3 28  1  0  0  0  0
  4 29  1  0  0  0  0
  5 30  1  0  0  0  0
  5 31  1  0  0  0  0
  7 32  1  0  0  0  0
  8 33  1  0  0  0  0
 10 34  1  0  0  0  0
 11 35  1  0  0  0  0
 12 36  1  0  0  0  0
 13 37  1  0  0  0  0
 16 38  1  0  0  0  0
 17 39  1  0  0  0  0
 17 40  1  0  0  0  0
 18 41  1  0  0  0  0
 18 42  1  0  0  0  0
 19 43  1  0  0  0  0
 19 44  1  0  0  0  0
 23 45  1  0  0  0  0
 24 46  1  0  0  0  0
 24 47  1  0  0  0  0
 25 48  1  0  0  0  0
 25 49  1  0  0  0  0
 26 50  1  0  0  0  0
 26 51  1  0  0  0  0
 27 52  1  0  0  0  0
M  END
$$$$
PPY.sdf
  PyMOL2.5          3D                             0

 52 54  0  0  1  0  0  0  0  0999 V2000
    1.9063   -2.5344   -2.4115 O   0  0  0  0  0  0  0  0  0  0  0  0
    2.1968   -1.3863   -2.1009 C   0  0  0  0  0  0  0  0  0  0  0  0
    2.7139   -0.5399   -3.0110 O   0  0  0  0  0  0  0  0  0  0  0  0
    2.0466   -0.7768   -0.7092 C   0  0  2  0  0  0  0  0  0  0  0  0
    3.2523   -1.1443    0.1633 C   0  0  0  0  0  0  0  0  0  0  0  0
    4.5345   -0.4606   -0.2468 C   0  0  0  0  0  0  0  0  0  0  0  0
    4.7145    0.9104   -0.0099 C   0  0  0  0  0  0  0  0  0  0  0  0
    5.8939    1.5490   -0.3992 C   0  0  0  0  0  0  0  0  0  0  0  0
    6.8950    0.8142   -1.0250 C   0  0  0  0  0  0  0  0  0  0  0  0
    8.0617    1.3975   -1.4224 O   0  0  0  0  0  0  0  0  0  0  0  0
    6.7357   -0.5447   -1.2655 C   0  0  0  0  0  0  0  0  0  0  0  0
    5.5571   -1.1833   -0.8775 C   0  0  0  0  0  0  0  0  0  0  0  0
    0.8172   -1.3378   -0.1338 N   0  0  0  0  0  0  0  0  0  0  0  0
   -0.3980   -0.7043   -0.3124 C   0  0  0  0  0  0  0  0  0  0  0  0
   -0.4999    0.3945   -0.8536 O   0  0  0  0  0  0  0  0  0  0  0  0
   -1.6106   -1.5472    0.1315 C   0  0  2  0  0  0  0  0  0  0  0  0
   -2.0755   -2.4139   -1.0463 C   0  0  0  0  0  0  0  0  0  0  0  0
   -3.5963   -2.3143   -1.0070 C   0  0  0  0  0  0  0  0  0  0  0  0
   -3.8428   -0.9083   -0.4856 C   0  0  0  0  0  0  0  0  0  0  0  0
   -2.7583   -0.7048    0.4536 N   0  0  0  0  0  0  0  0  0  0  0  0
   -2.7653    0.0437    1.6151 C   0  0  0  0  0  0  0  0  0  0  0  0
   -1.8566   -0.0827    2.4404 O   0  0  0  0  0  0  0  0  0  0  0  0
   -3.9732    0.9785    1.8396 C   0  0  2  0  0  0  0  0  0  0  0  0
   -4.1524    2.0370    0.7521 C   0  0  0  0  0  0  0  0  0  0  0  0
   -4.4545    3.3364    1.4925 C   0  0  0  0  0  0  0  0  0  0  0  0
   -4.7161    2.9106    2.9234 C   0  0  0  0  0  0  0  0  0  0  0  0
   -3.8201    1.7772    3.0723 N   0  0  0  0  0  0  0  0  0  0  0  0
    2.7570   -1.0538   -3.8430 H   0  0  0  0  0  0  0  0  0  0  0  0
    1.9299    0.3085   -0.8038 H   0  0  0  0  0  0  0  0  0  0  0  0
    3.0465   -0.8795    1.2095 H   0  0  0  0  0  0  0  0  0  0  0  0
    3.3996   -2.2330    0.1646 H   0  0  0  0  0  0  0  0  0  0  0  0
    3.9347    1.4911    0.4798 H   0  0  0  0  0  0  0  0  0  0  0  0
    6.0096    2.6108   -0.2071 H   0  0  0  0  0  0  0  0  0  0  0  0
    8.0271    2.3404   -1.1923 H   0  0  0  0  0  0  0  0  0  0  0  0
    7.5274   -1.1054   -1.7540 H   0  0  0  0  0  0  0  0  0  0  0  0
    5.4463   -2.2475   -1.0731 H   0  0  0  0  0  0  0  0  0  0  0  0
    0.8017   -2.3409    0.0077 H   0  0  0  0  0  0  0  0  0  0  0  0
   -1.3543   -2.1537    1.0077 H   0  0  0  0  0  0  0  0  0  0  0  0
   -1.7291   -3.4482   -0.9550 H   0  0  0  0  0  0  0  0  0  0  0  0
   -1.7050   -2.0274   -2.0039 H   0  0  0  0  0  0  0  0  0  0  0  0
   -3.9928   -3.0514   -0.2981 H   0  0  0  0  0  0  0  0  0  0  0  0
   -4.0605   -2.4920   -1.9808 H   0  0  0  0  0  0  0  0  0  0  0  0
   -3.7400   -0.1668   -1.2850 H   0  0  0  0  0  0  0  0  0  0  0  0
   -4.8234   -0.8071   -0.0158 H   0  0  0  0  0  0  0  0  0  0  0  0
   -4.8751    0.3616    1.9348 H   0  0  0  0  0  0  0  0  0  0  0  0
   -3.2653    2.1583    0.1203 H   0  0  0  0  0  0  0  0  0  0  0  0
   -4.9940    1.7755    0.1007 H   0  0  0  0  0  0  0  0  0  0  0  0
   -5.3047    3.8705    1.0574 H   0  0  0  0  0  0  0  0  0  0  0  0
   -3.5808    3.9981    1.4445 H   0  0  0  0  0  0  0  0  0  0  0  0
   -5.7593    2.6026    3.0583 H   0  0  0  0  0  0  0  0  0  0  0  0
   -4.4904    3.7080    3.6367 H   0  0  0  0  0  0  0  0  0  0  0  0
   -4.0113    1.2160    3.8984 H   0  0  0  0  0  0  0  0  0  0  0  0
  1  2  2  0  0  0  0
  2  3  1  0  0  0  0
  2  4  1  0  0  0  0
  4  5  1  0  0  0  0
  5  6  1  0  0  0  0
  6  7  2  0  0  0  0
  7  8  1  0  0  0  0
  8  9  2  0  0  0  0
  9 10  1  0  0  0  0
  9 11  1  0  0  0  0
 11 12  2  0  0  0  0
  4 13  1  0  0  0  0
 13 14  1  0  0  0  0
 14 15  2  0  0  0  0
 14 16  1  0  0  0  0
 16 17  1  0  0  0  0
 17 18  1  0  0  0  0
 18 19  1  0  0  0  0
 19 20  1  0  0  0  0
 20 21  1  0  0  0  0
 21 22  2  0  0  0  0
 21 23  1  0  0  0  0
 23 24  1  0  0  0  0
 24 25  1  0  0  0  0
 25 26  1  0  0  0  0
 26 27  1  0  0  0  0
  6 12  1  0  0  0  0
 16 20  1  0  0  0  0
 23 27  1  0  0  0  0
  3 28  1  0  0  0  0
  4 29  1  0  0  0  0
  5 30  1  0  0  0  0
  5 31  1  0  0  0  0
  7 32  1  0  0  0  0
  8 33  1  0  0  0  0
 10 34  1  0  0  0  0
 11 35  1  0  0  0  0
 12 36  1  0  0  0  0
 13 37  1  0  0  0  0
 16 38  1  0  0  0  0
 17 39  1  0  0  0  0
 17 40  1  0  0  0  0
 18 41  1  0  0  0  0
 18 42  1  0  0  0  0
 19 43  1  0  0  0  0
 19 44  1  0  0  0  0
 23 45  1  0  0  0  0
 24 46  1  0  0  0  0
 24 47  1  0  0  0  0
 25 48  1  0  0  0  0
 25 49  1  0  0  0  0
 26 50  1  0  0  0  0
 26 51  1  0  0  0  0
 27 52  1  0  0  0  0
M  END
$$$$
PPY.sdf
  PyMOL2.5          3D                             0

 52 54  0  0  1  0  0  0  0  0999 V2000
    1.7660   -1.6056   -2.9125 O   0  0  0  0  0  0  0  0  0  0  0  0
    1.9207   -0.4016   -3.0598 C   0  0  0  0  0  0  0  0  0  0  0  0
    2.2517    0.0928   -4.2714 O   0  0  0  0  0  0  0  0  0  0  0  0
    1.7859    0.6788   -1.9857 C   0  0  2  0  0  0  0  0  0  0  0  0
    3.1364    1.3437   -1.6775 C   0  0  0  0  0  0  0  0  0  0  0  0
    4.1515    0.4432   -1.0064 C   0  0  0  0  0  0  0  0  0  0  0  0
    4.2316    0.3889    0.3933 C   0  0  0  0  0  0  0  0  0  0  0  0
    5.1468   -0.4597    1.0165 C   0  0  0  0  0  0  0  0  0  0  0  0
    5.9860   -1.2528    0.2446 C   0  0  0  0  0  0  0  0  0  0  0  0
    6.8635   -2.0689    0.8945 O   0  0  0  0  0  0  0  0  0  0  0  0
    5.9283   -1.2095   -1.1443 C   0  0  0  0  0  0  0  0  0  0  0  0
    5.0117   -0.3602   -1.7688 C   0  0  0  0  0  0  0  0  0  0  0  0
    1.1681    0.0915   -0.7946 N   0  0  0  0  0  0  0  0  0  0  0  0
   -0.2068    0.0286   -0.6725 C   0  0  0  0  0  0  0  0  0  0  0  0
   -0.9666    0.5714   -1.4724 O   0  0  0  0  0  0  0  0  0  0  0  0
   -0.6872   -0.8512    0.5028 C   0  0  2  0  0  0  0  0  0  0  0  0
   -0.7516   -2.3181    0.0780 C   0  0  0  0  0  0  0  0  0  0  0  0
   -2.1571   -2.4447   -0.5047 C   0  0  0  0  0  0  0  0  0  0  0  0
   -2.9923   -1.5326    0.3841 C   0  0  0  0  0  0  0  0  0  0  0  0
   -2.0602   -0.5316    0.8737 N   0  0  0  0  0  0  0  0  0  0  0  0
   -2.3292    0.5496    1.6911 C   0  0  0  0  0  0  0  0  0  0  0  0
   -1.4086    1.2239    2.1585 O   0  0  0  0  0  0  0  0  0  0  0  0
   -3.8175    0.8382    1.9831 C   0  0  2  0  0  0  0  0  0  0  0  0
   -4.5492    1.4419    0.7837 C   0  0  0  0  0  0  0  0  0  0  0  0
   -5.2370    2.6913    1.3199 C   0  0  0  0  0  0  0  0  0  0  0  0
   -5.2601    2.4843    2.8202 C   0  0  0  0  0  0  0  0  0  0  0  0
   -3.9798    1.8388    3.0572 N   0  0  0  0  0  0  0  0  0  0  0  0
    2.2453   -0.6938   -4.8569 H   0  0  0  0  0  0  0  0  0  0  0  0
    1.1027    1.4376   -2.3863 H   0  0  0  0  0  0  0  0  0  0  0  0
    2.9646    2.2133   -1.0289 H   0  0  0  0  0  0  0  0  0  0  0  0
    3.5786    1.7480   -2.5973 H   0  0  0  0  0  0  0  0  0  0  0  0
    3.5812    1.0084    1.0087 H   0  0  0  0  0  0  0  0  0  0  0  0
    5.2068   -0.4990    2.1006 H   0  0  0  0  0  0  0  0  0  0  0  0
    7.3925   -2.5441    0.2333 H   0  0  0  0  0  0  0  0  0  0  0  0
    6.5831   -1.8239   -1.7539 H   0  0  0  0  0  0  0  0  0  0  0  0
    4.9771   -0.3297   -2.8558 H   0  0  0  0  0  0  0  0  0  0  0  0
    1.7071   -0.6246   -0.3203 H   0  0  0  0  0  0  0  0  0  0  0  0
   -0.0149   -0.7050    1.3559 H   0  0  0  0  0  0  0  0  0  0  0  0
    0.0205   -2.6092   -0.6400 H   0  0  0  0  0  0  0  0  0  0  0  0
   -0.6647   -2.9649    0.9596 H   0  0  0  0  0  0  0  0  0  0  0  0
   -2.5243   -3.4748   -0.5112 H   0  0  0  0  0  0  0  0  0  0  0  0
   -2.1670   -2.0754   -1.5372 H   0  0  0  0  0  0  0  0  0  0  0  0
   -3.3911   -2.0754    1.2475 H   0  0  0  0  0  0  0  0  0  0  0  0
   -3.8180   -1.0698   -0.1606 H   0  0  0  0  0  0  0  0  0  0  0  0
   -4.3045   -0.0915    2.3007 H   0  0  0  0  0  0  0  0  0  0  0  0
   -5.3059    0.7391    0.4157 H   0  0  0  0  0  0  0  0  0  0  0  0
   -3.8878    1.6931   -0.0523 H   0  0  0  0  0  0  0  0  0  0  0  0
   -4.6427    3.5780    1.0661 H   0  0  0  0  0  0  0  0  0  0  0  0
   -6.2386    2.8242    0.9004 H   0  0  0  0  0  0  0  0  0  0  0  0
   -6.0870    1.8284    3.1156 H   0  0  0  0  0  0  0  0  0  0  0  0
   -5.3480    3.4289    3.3638 H   0  0  0  0  0  0  0  0  0  0  0  0
   -3.9101    1.4115    3.9766 H   0  0  0  0  0  0  0  0  0  0  0  0
  1  2  2  0  0  0  0
  2  3  1  0  0  0  0
  2  4  1  0  0  0  0
  4  5  1  0  0  0  0
  5  6  1  0  0  0  0
  6  7  2  0  0  0  0
  7  8  1  0  0  0  0
  8  9  2  0  0  0  0
  9 10  1  0  0  0  0
  9 11  1  0  0  0  0
 11 12  2  0  0  0  0
  4 13  1  0  0  0  0
 13 14  1  0  0  0  0
 14 15  2  0  0  0  0
 14 16  1  0  0  0  0
 16 17  1  0  0  0  0
 17 18  1  0  0  0  0
 18 19  1  0  0  0  0
 19 20  1  0  0  0  0
 20 21  1  0  0  0  0
 21 22  2  0  0  0  0
 21 23  1  0  0  0  0
 23 24  1  0  0  0  0
 24 25  1  0  0  0  0
 25 26  1  0  0  0  0
 26 27  1  0  0  0  0
  6 12  1  0  0  0  0
 16 20  1  0  0  0  0
 23 27  1  0  0  0  0
  3 28  1  0  0  0  0
  4 29  1  0  0  0  0
  5 30  1  0  0  0  0
  5 31  1  0  0  0  0
  7 32  1  0  0  0  0
  8 33  1  0  0  0  0
 10 34  1  0  0  0  0
 11 35  1  0  0  0  0
 12 36  1  0  0  0  0
 13 37  1  0  0  0  0
 16 38  1  0  0  0  0
 17 39  1  0  0  0  0
 17 40  1  0  0  0  0
 18 41  1  0  0  0  0
 18 42  1  0  0  0  0
 19 43  1  0  0  0  0
 19 44  1  0  0  0  0
 23 45  1  0  0  0  0
 24 46  1  0  0  0  0
 24 47  1  0  0  0  0
 25 48  1  0  0  0  0
 25 49  1  0  0  0  0
 26 50  1  0  0  0  0
 26 51  1  0  0  0  0
 27 52  1  0  0  0  0
M  END
$$$$
PPY.sdf
  PyMOL2.5          3D                             0

 52 54  0  0  1  0  0  0  0  0999 V2000
    0.6341   -2.3552   -3.8725 O   0  0  0  0  0  0  0  0  0  0  0  0
    1.6190   -1.8849   -3.3193 C   0  0  0  0  0  0  0  0  0  0  0  0
    2.8493   -2.2521   -3.7293 O   0  0  0  0  0  0  0  0  0  0  0  0
    1.6143   -0.7977   -2.2378 C   0  0  2  0  0  0  0  0  0  0  0  0
    2.8315   -0.8801   -1.2992 C   0  0  0  0  0  0  0  0  0  0  0  0
    2.8432    0.1786   -0.2172 C   0  0  0  0  0  0  0  0  0  0  0  0
    2.6835   -0.1876    1.1267 C   0  0  0  0  0  0  0  0  0  0  0  0
    2.6938    0.7822    2.1295 C   0  0  0  0  0  0  0  0  0  0  0  0
    2.8625    2.1191    1.7926 C   0  0  0  0  0  0  0  0  0  0  0  0
    2.8519    3.0345    2.8027 O   0  0  0  0  0  0  0  0  0  0  0  0
    3.0255    2.5047    0.4666 C   0  0  0  0  0  0  0  0  0  0  0  0
    3.0185    1.5332   -0.5372 C   0  0  0  0  0  0  0  0  0  0  0  0
    0.3152   -0.8023   -1.5605 N   0  0  0  0  0  0  0  0  0  0  0  0
   -0.0921   -1.8022   -0.7059 C   0  0  0  0  0  0  0  0  0  0  0  0
    0.6348   -2.7294   -0.3597 O   0  0  0  0  0  0  0  0  0  0  0  0
   -1.5665   -1.7045   -0.2497 C   0  0  2  0  0  0  0  0  0  0  0  0
   -2.3949   -2.8021   -0.9213 C   0  0  0  0  0  0  0  0  0  0  0  0
   -2.8867   -2.1393   -2.2042 C   0  0  0  0  0  0  0  0  0  0  0  0
   -3.1567   -0.7077   -1.7715 C   0  0  0  0  0  0  0  0  0  0  0  0
   -2.2196   -0.4617   -0.6861 N   0  0  0  0  0  0  0  0  0  0  0  0
   -2.1542    0.7854   -0.0863 C   0  0  0  0  0  0  0  0  0  0  0  0
   -2.7726    1.7352   -0.5715 O   0  0  0  0  0  0  0  0  0  0  0  0
   -1.3069    0.9039    1.2010 C   0  0  2  0  0  0  0  0  0  0  0  0
   -2.1102    0.4872    2.4338 C   0  0  0  0  0  0  0  0  0  0  0  0
   -2.1305    1.7218    3.3210 C   0  0  0  0  0  0  0  0  0  0  0  0
   -0.8923    2.4805    2.8943 C   0  0  0  0  0  0  0  0  0  0  0  0
   -0.8925    2.3006    1.4477 N   0  0  0  0  0  0  0  0  0  0  0  0
    2.6759   -2.9349   -4.4121 H   0  0  0  0  0  0  0  0  0  0  0  0
    1.6500    0.1563   -2.7793 H   0  0  0  0  0  0  0  0  0  0  0  0
    2.9085   -1.8774   -0.8497 H   0  0  0  0  0  0  0  0  0  0  0  0
    3.7566   -0.7640   -1.8800 H   0  0  0  0  0  0  0  0  0  0  0  0
    2.5474   -1.2327    1.3996 H   0  0  0  0  0  0  0  0  0  0  0  0
    2.5697    0.4943    3.1694 H   0  0  0  0  0  0  0  0  0  0  0  0
    3.0048    3.9164    2.4251 H   0  0  0  0  0  0  0  0  0  0  0  0
    3.1600    3.5472    0.1958 H   0  0  0  0  0  0  0  0  0  0  0  0
    3.1565    1.8420   -1.5710 H   0  0  0  0  0  0  0  0  0  0  0  0
   -0.4184   -0.2158   -1.9453 H   0  0  0  0  0  0  0  0  0  0  0  0
   -1.5880   -1.7869    0.8405 H   0  0  0  0  0  0  0  0  0  0  0  0
   -3.2563   -3.0535   -0.2902 H   0  0  0  0  0  0  0  0  0  0  0  0
   -1.8369   -3.7219   -1.1203 H   0  0  0  0  0  0  0  0  0  0  0  0
   -2.0965   -2.1616   -2.9634 H   0  0  0  0  0  0  0  0  0  0  0  0
   -3.7723   -2.6256   -2.6224 H   0  0  0  0  0  0  0  0  0  0  0  0
   -3.0116    0.0148   -2.5803 H   0  0  0  0  0  0  0  0  0  0  0  0
   -4.1717   -0.5960   -1.3737 H   0  0  0  0  0  0  0  0  0  0  0  0
   -0.4068    0.2896    1.1116 H   0  0  0  0  0  0  0  0  0  0  0  0
   -3.1268    0.1484    2.2092 H   0  0  0  0  0  0  0  0  0  0  0  0
   -1.5901   -0.3258    2.9548 H   0  0  0  0  0  0  0  0  0  0  0  0
   -2.1220    1.4675    4.3849 H   0  0  0  0  0  0  0  0  0  0  0  0
   -3.0318    2.3133    3.1176 H   0  0  0  0  0  0  0  0  0  0  0  0
   -0.9400    3.5374    3.1703 H   0  0  0  0  0  0  0  0  0  0  0  0
    0.0059    2.0401    3.3409 H   0  0  0  0  0  0  0  0  0  0  0  0
    0.0325    2.4686    1.0557 H   0  0  0  0  0  0  0  0  0  0  0  0
  1  2  2  0  0  0  0
  2  3  1  0  0  0  0
  2  4  1  0  0  0  0
  4  5  1  0  0  0  0
  5  6  1  0  0  0  0
  6  7  2  0  0  0  0
  7  8  1  0  0  0  0
  8  9  2  0  0  0  0
  9 10  1  0  0  0  0
  9 11  1  0  0  0  0
 11 12  2  0  0  0  0
  4 13  1  0  0  0  0
 13 14  1  0  0  0  0
 14 15  2  0  0  0  0
 14 16  1  0  0  0  0
 16 17  1  0  0  0  0
 17 18  1  0  0  0  0
 18 19  1  0  0  0  0
 19 20  1  0  0  0  0
 20 21  1  0  0  0  0
 21 22  2  0  0  0  0
 21 23  1  0  0  0  0
 23 24  1  0  0  0  0
 24 25  1  0  0  0  0
 25 26  1  0  0  0  0
 26 27  1  0  0  0  0
  6 12  1  0  0  0  0
 16 20  1  0  0  0  0
 23 27  1  0  0  0  0
  3 28  1  0  0  0  0
  4 29  1  0  0  0  0
  5 30  1  0  0  0  0
  5 31  1  0  0  0  0
  7 32  1  0  0  0  0
  8 33  1  0  0  0  0
 10 34  1  0  0  0  0
 11 35  1  0  0  0  0
 12 36  1  0  0  0  0
 13 37  1  0  0  0  0
 16 38  1  0  0  0  0
 17 39  1  0  0  0  0
 17 40  1  0  0  0  0
 18 41  1  0  0  0  0
 18 42  1  0  0  0  0
 19 43  1  0  0  0  0
 19 44  1  0  0  0  0
 23 45  1  0  0  0  0
 24 46  1  0  0  0  0
 24 47  1  0  0  0  0
 25 48  1  0  0  0  0
 25 49  1  0  0  0  0
 26 50  1  0  0  0  0
 26 51  1  0  0  0  0
 27 52  1  0  0  0  0
M  END
$$$$
PPY.sdf
  PyMOL2.5          3D                             0

 52 54  0  0  1  0  0  0  0  0999 V2000
    2.2527   -2.9985    0.1030 O   0  0  0  0  0  0  0  0  0  0  0  0
    2.4571   -2.0206   -0.6040 C   0  0  0  0  0  0  0  0  0  0  0  0
    3.5331   -1.9677   -1.4099 O   0  0  0  0  0  0  0  0  0  0  0  0
    1.5680   -0.7854   -0.6814 C   0  0  2  0  0  0  0  0  0  0  0  0
    1.9326    0.2022    0.4354 C   0  0  0  0  0  0  0  0  0  0  0  0
    3.2447    0.9128    0.2059 C   0  0  0  0  0  0  0  0  0  0  0  0
    4.3884    0.5569    0.9338 C   0  0  0  0  0  0  0  0  0  0  0  0
    5.5997    1.2112    0.7055 C   0  0  0  0  0  0  0  0  0  0  0  0
    5.6699    2.2202   -0.2472 C   0  0  0  0  0  0  0  0  0  0  0  0
    6.8737    2.8318   -0.4373 O   0  0  0  0  0  0  0  0  0  0  0  0
    4.5461    2.5897   -0.9783 C   0  0  0  0  0  0  0  0  0  0  0  0
    3.3338    1.9354   -0.7506 C   0  0  0  0  0  0  0  0  0  0  0  0
    0.1842   -1.2565   -0.5467 N   0  0  0  0  0  0  0  0  0  0  0  0
   -0.8859   -0.4791   -0.9355 C   0  0  0  0  0  0  0  0  0  0  0  0
   -0.7319    0.6275   -1.4463 O   0  0  0  0  0  0  0  0  0  0  0  0
   -2.2608   -1.1536   -0.7329 C   0  0  2  0  0  0  0  0  0  0  0  0
   -2.4952   -2.1523   -1.8725 C   0  0  0  0  0  0  0  0  0  0  0  0
   -3.1082   -1.2812   -2.9634 C   0  0  0  0  0  0  0  0  0  0  0  0
   -3.9881   -0.3192   -2.1804 C   0  0  0  0  0  0  0  0  0  0  0  0
   -3.3836   -0.2222   -0.8610 N   0  0  0  0  0  0  0  0  0  0  0  0
   -3.9869    0.5589    0.0993 C   0  0  0  0  0  0  0  0  0  0  0  0
   -4.9871    1.2320   -0.1862 O   0  0  0  0  0  0  0  0  0  0  0  0
   -3.4562    0.6259    1.5423 C   0  0  2  0  0  0  0  0  0  0  0  0
   -2.1154    1.3202    1.7351 C   0  0  0  0  0  0  0  0  0  0  0  0
   -1.3306    0.4027    2.6645 C   0  0  0  0  0  0  0  0  0  0  0  0
   -2.3833   -0.5018    3.2759 C   0  0  0  0  0  0  0  0  0  0  0  0
   -3.3082   -0.7107    2.1646 N   0  0  0  0  0  0  0  0  0  0  0  0
    4.0183   -2.8031   -1.2482 H   0  0  0  0  0  0  0  0  0  0  0  0
    1.6634   -0.3337   -1.6757 H   0  0  0  0  0  0  0  0  0  0  0  0
    1.1530    0.9681    0.5393 H   0  0  0  0  0  0  0  0  0  0  0  0
    1.9578   -0.3157    1.4038 H   0  0  0  0  0  0  0  0  0  0  0  0
    4.3478   -0.2299    1.6834 H   0  0  0  0  0  0  0  0  0  0  0  0
    6.4861    0.9360    1.2698 H   0  0  0  0  0  0  0  0  0  0  0  0
    6.7670    3.5142   -1.1200 H   0  0  0  0  0  0  0  0  0  0  0  0
    4.5910    3.3776   -1.7232 H   0  0  0  0  0  0  0  0  0  0  0  0
    2.4548    2.2289   -1.3230 H   0  0  0  0  0  0  0  0  0  0  0  0
    0.0290   -2.1129   -0.0222 H   0  0  0  0  0  0  0  0  0  0  0  0
   -2.2642   -1.6662    0.2284 H   0  0  0  0  0  0  0  0  0  0  0  0
   -3.2232   -2.9108   -1.5591 H   0  0  0  0  0  0  0  0  0  0  0  0
   -1.5913   -2.6647   -2.2148 H   0  0  0  0  0  0  0  0  0  0  0  0
   -3.6711   -1.8574   -3.7029 H   0  0  0  0  0  0  0  0  0  0  0  0
   -2.3213   -0.7295   -3.4914 H   0  0  0  0  0  0  0  0  0  0  0  0
   -5.0024   -0.7182   -2.0646 H   0  0  0  0  0  0  0  0  0  0  0  0
   -4.0496    0.6689   -2.6472 H   0  0  0  0  0  0  0  0  0  0  0  0
   -4.2117    1.1740    2.1236 H   0  0  0  0  0  0  0  0  0  0  0  0
   -1.5730    1.5179    0.8094 H   0  0  0  0  0  0  0  0  0  0  0  0
   -2.2712    2.2890    2.2256 H   0  0  0  0  0  0  0  0  0  0  0  0
   -0.6149   -0.1922    2.0874 H   0  0  0  0  0  0  0  0  0  0  0  0
   -0.7709    0.9616    3.4204 H   0  0  0  0  0  0  0  0  0  0  0  0
   -1.9592   -1.4450    3.6310 H   0  0  0  0  0  0  0  0  0  0  0  0
   -2.8893   -0.0058    4.1124 H   0  0  0  0  0  0  0  0  0  0  0  0
   -4.2173   -1.0298    2.5004 H   0  0  0  0  0  0  0  0  0  0  0  0
  1  2  2  0  0  0  0
  2  3  1  0  0  0  0
  2  4  1  0  0  0  0
  4  5  1  0  0  0  0
  5  6  1  0  0  0  0
  6  7  2  0  0  0  0
  7  8  1  0  0  0  0
  8  9  2  0  0  0  0
  9 10  1  0  0  0  0
  9 11  1  0  0  0  0
 11 12  2  0  0  0  0
  4 13  1  0  0  0  0
 13 14  1  0  0  0  0
 14 15  2  0  0  0  0
 14 16  1  0  0  0  0
 16 17  1  0  0  0  0
 17 18  1  0  0  0  0
 18 19  1  0  0  0  0
 19 20  1  0  0  0  0
 20 21  1  0  0  0  0
 21 22  2  0  0  0  0
 21 23  1  0  0  0  0
 23 24  1  0  0  0  0
 24 25  1  0  0  0  0
 25 26  1  0  0  0  0
 26 27  1  0  0  0  0
  6 12  1  0  0  0  0
 16 20  1  0  0  0  0
 23 27  1  0  0  0  0
  3 28  1  0  0  0  0
  4 29  1  0  0  0  0
  5 30  1  0  0  0  0
  5 31  1  0  0  0  0
  7 32  1  0  0  0  0
  8 33  1  0  0  0  0
 10 34  1  0  0  0  0
 11 35  1  0  0  0  0
 12 36  1  0  0  0  0
 13 37  1  0  0  0  0
 16 38  1  0  0  0  0
 17 39  1  0  0  0  0
 17 40  1  0  0  0  0
 18 41  1  0  0  0  0
 18 42  1  0  0  0  0
 19 43  1  0  0  0  0
 19 44  1  0  0  0  0
 23 45  1  0  0  0  0
 24 46  1  0  0  0  0
 24 47  1  0  0  0  0
 25 48  1  0  0  0  0
 25 49  1  0  0  0  0
 26 50  1  0  0  0  0
 26 51  1  0  0  0  0
 27 52  1  0  0  0  0
M  END
$$$$
PPY.sdf
  PyMOL2.5          3D                             0

 52 54  0  0  1  0  0  0  0  0999 V2000
    0.7637    1.8808    0.5908 O   0  0  0  0  0  0  0  0  0  0  0  0
    1.4802    0.8962    0.7064 C   0  0  0  0  0  0  0  0  0  0  0  0
    2.2523    0.7315    1.7952 O   0  0  0  0  0  0  0  0  0  0  0  0
    1.5865   -0.2372   -0.3077 C   0  0  2  0  0  0  0  0  0  0  0  0
    2.3699    0.2332   -1.5376 C   0  0  0  0  0  0  0  0  0  0  0  0
    3.8343    0.4782   -1.2638 C   0  0  0  0  0  0  0  0  0  0  0  0
    4.7167   -0.5999   -1.1070 C   0  0  0  0  0  0  0  0  0  0  0  0
    6.0677   -0.3725   -0.8417 C   0  0  0  0  0  0  0  0  0  0  0  0
    6.5390    0.9297   -0.7319 C   0  0  0  0  0  0  0  0  0  0  0  0
    7.8659    1.1054   -0.4725 O   0  0  0  0  0  0  0  0  0  0  0  0
    5.6801    2.0130   -0.8825 C   0  0  0  0  0  0  0  0  0  0  0  0
    4.3277    1.7862   -1.1479 C   0  0  0  0  0  0  0  0  0  0  0  0
    0.2088   -0.5783   -0.6862 N   0  0  0  0  0  0  0  0  0  0  0  0
   -0.4394   -1.6618   -0.1350 C   0  0  0  0  0  0  0  0  0  0  0  0
    0.1447   -2.5562    0.4702 O   0  0  0  0  0  0  0  0  0  0  0  0
   -1.9454   -1.7526   -0.4556 C   0  0  2  0  0  0  0  0  0  0  0  0
   -2.1708   -2.5426   -1.7471 C   0  0  0  0  0  0  0  0  0  0  0  0
   -2.2121   -1.4683   -2.8294 C   0  0  0  0  0  0  0  0  0  0  0  0
   -2.9069   -0.3081   -2.1369 C   0  0  0  0  0  0  0  0  0  0  0  0
   -2.5441   -0.4394   -0.7351 N   0  0  0  0  0  0  0  0  0  0  0  0
   -2.9751    0.4946    0.1862 C   0  0  0  0  0  0  0  0  0  0  0  0
   -3.5586    1.5222   -0.1724 O   0  0  0  0  0  0  0  0  0  0  0  0
   -2.7266    0.2061    1.6853 C   0  0  2  0  0  0  0  0  0  0  0  0
   -3.8353   -0.6737    2.2566 C   0  0  0  0  0  0  0  0  0  0  0  0
   -4.6940    0.2869    3.0551 C   0  0  0  0  0  0  0  0  0  0  0  0
   -3.6832    1.2884    3.5668 C   0  0  0  0  0  0  0  0  0  0  0  0
   -2.7515    1.4809    2.4536 N   0  0  0  0  0  0  0  0  0  0  0  0
    2.0514    1.5071    2.3598 H   0  0  0  0  0  0  0  0  0  0  0  0
    2.0609   -1.1039    0.1650 H   0  0  0  0  0  0  0  0  0  0  0  0
    1.9163    1.1433   -1.9534 H   0  0  0  0  0  0  0  0  0  0  0  0
    2.2909   -0.5176   -2.3356 H   0  0  0  0  0  0  0  0  0  0  0  0
    4.3602   -1.6246   -1.1893 H   0  0  0  0  0  0  0  0  0  0  0  0
    6.7498   -1.2090   -0.7199 H   0  0  0  0  0  0  0  0  0  0  0  0
    8.0469    2.0580   -0.4204 H   0  0  0  0  0  0  0  0  0  0  0  0
    6.0404    3.0332   -0.7975 H   0  0  0  0  0  0  0  0  0  0  0  0
    3.6616    2.6394   -1.2624 H   0  0  0  0  0  0  0  0  0  0  0  0
   -0.3908    0.2047   -0.9396 H   0  0  0  0  0  0  0  0  0  0  0  0
   -2.4436   -2.2208    0.3982 H   0  0  0  0  0  0  0  0  0  0  0  0
   -1.4031   -3.2972   -1.9430 H   0  0  0  0  0  0  0  0  0  0  0  0
   -3.1434   -3.0481   -1.7037 H   0  0  0  0  0  0  0  0  0  0  0  0
   -1.1927   -1.1846   -3.1157 H   0  0  0  0  0  0  0  0  0  0  0  0
   -2.7377   -1.7938   -3.7314 H   0  0  0  0  0  0  0  0  0  0  0  0
   -3.9967   -0.3936   -2.2144 H   0  0  0  0  0  0  0  0  0  0  0  0
   -2.5996    0.6671   -2.5266 H   0  0  0  0  0  0  0  0  0  0  0  0
   -1.7440   -0.2549    1.8146 H   0  0  0  0  0  0  0  0  0  0  0  0
   -3.4021   -1.4216    2.9320 H   0  0  0  0  0  0  0  0  0  0  0  0
   -4.4281   -1.1975    1.5002 H   0  0  0  0  0  0  0  0  0  0  0  0
   -5.4236    0.7772    2.3992 H   0  0  0  0  0  0  0  0  0  0  0  0
   -5.2365   -0.2136    3.8622 H   0  0  0  0  0  0  0  0  0  0  0  0
   -3.1397    0.8848    4.4288 H   0  0  0  0  0  0  0  0  0  0  0  0
   -4.1493    2.2304    3.8705 H   0  0  0  0  0  0  0  0  0  0  0  0
   -3.1420    2.1925    1.8217 H   0  0  0  0  0  0  0  0  0  0  0  0
  1  2  2  0  0  0  0
  2  3  1  0  0  0  0
  2  4  1  0  0  0  0
  4  5  1  0  0  0  0
  5  6  1  0  0  0  0
  6  7  2  0  0  0  0
  7  8  1  0  0  0  0
  8  9  2  0  0  0  0
  9 10  1  0  0  0  0
  9 11  1  0  0  0  0
 11 12  2  0  0  0  0
  4 13  1  0  0  0  0
 13 14  1  0  0  0  0
 14 15  2  0  0  0  0
 14 16  1  0  0  0  0
 16 17  1  0  0  0  0
 17 18  1  0  0  0  0
 18 19  1  0  0  0  0
 19 20  1  0  0  0  0
 20 21  1  0  0  0  0
 21 22  2  0  0  0  0
 21 23  1  0  0  0  0
 23 24  1  0  0  0  0
 24 25  1  0  0  0  0
 25 26  1  0  0  0  0
 26 27  1  0  0  0  0
  6 12  1  0  0  0  0
 16 20  1  0  0  0  0
 23 27  1  0  0  0  0
  3 28  1  0  0  0  0
  4 29  1  0  0  0  0
  5 30  1  0  0  0  0
  5 31  1  0  0  0  0
  7 32  1  0  0  0  0
  8 33  1  0  0  0  0
 10 34  1  0  0  0  0
 11 35  1  0  0  0  0
 12 36  1  0  0  0  0
 13 37  1  0  0  0  0
 16 38  1  0  0  0  0
 17 39  1  0  0  0  0
 17 40  1  0  0  0  0
 18 41  1  0  0  0  0
 18 42  1  0  0  0  0
 19 43  1  0  0  0  0
 19 44  1  0  0  0  0
 23 45  1  0  0  0  0
 24 46  1  0  0  0  0
 24 47  1  0  0  0  0
 25 48  1  0  0  0  0
 25 49  1  0  0  0  0
 26 50  1  0  0  0  0
 26 51  1  0  0  0  0
 27 52  1  0  0  0  0
M  END
$$$$
PPY.sdf
  PyMOL2.5          3D                             0

 52 54  0  0  1  0  0  0  0  0999 V2000
    1.5803   -3.7194   -2.3321 O   0  0  0  0  0  0  0  0  0  0  0  0
    2.2900   -2.7283   -2.4147 C   0  0  0  0  0  0  0  0  0  0  0  0
    3.4456   -2.7844   -3.1123 O   0  0  0  0  0  0  0  0  0  0  0  0
    2.0528   -1.3638   -1.7680 C   0  0  2  0  0  0  0  0  0  0  0  0
    2.9253   -1.2620   -0.5114 C   0  0  0  0  0  0  0  0  0  0  0  0
    2.9551    0.1286    0.0804 C   0  0  0  0  0  0  0  0  0  0  0  0
    2.2365    0.4221    1.2470 C   0  0  0  0  0  0  0  0  0  0  0  0
    2.2696    1.7079    1.7892 C   0  0  0  0  0  0  0  0  0  0  0  0
    3.0112    2.7025    1.1647 C   0  0  0  0  0  0  0  0  0  0  0  0
    3.0095    3.9451    1.7266 O   0  0  0  0  0  0  0  0  0  0  0  0
    3.7281    2.4330    0.0043 C   0  0  0  0  0  0  0  0  0  0  0  0
    3.7003    1.1455   -0.5360 C   0  0  0  0  0  0  0  0  0  0  0  0
    0.6320   -1.2279   -1.4569 N   0  0  0  0  0  0  0  0  0  0  0  0
   -0.2799   -0.8654   -2.4247 C   0  0  0  0  0  0  0  0  0  0  0  0
    0.0649   -0.5270   -3.5553 O   0  0  0  0  0  0  0  0  0  0  0  0
   -1.7588   -1.0619   -2.0103 C   0  0  2  0  0  0  0  0  0  0  0  0
   -2.7340   -0.4336   -3.0090 C   0  0  0  0  0  0  0  0  0  0  0  0
   -2.9293    0.9725   -2.4564 C   0  0  0  0  0  0  0  0  0  0  0  0
   -2.9511    0.7459   -0.9526 C   0  0  0  0  0  0  0  0  0  0  0  0
   -2.0896   -0.4061   -0.7361 N   0  0  0  0  0  0  0  0  0  0  0  0
   -1.7989   -1.0043    0.4760 C   0  0  0  0  0  0  0  0  0  0  0  0
   -1.1229   -2.0377    0.5069 O   0  0  0  0  0  0  0  0  0  0  0  0
   -2.3629   -0.3355    1.7501 C   0  0  2  0  0  0  0  0  0  0  0  0
   -1.7134    1.0055    2.0880 C   0  0  0  0  0  0  0  0  0  0  0  0
   -1.3327    0.9123    3.5611 C   0  0  0  0  0  0  0  0  0  0  0  0
   -2.1405   -0.2586    4.0802 C   0  0  0  0  0  0  0  0  0  0  0  0
   -2.1117   -1.1664    2.9453 N   0  0  0  0  0  0  0  0  0  0  0  0
    3.4455   -3.6913   -3.4854 H   0  0  0  0  0  0  0  0  0  0  0  0
    2.3160   -0.5954   -2.5049 H   0  0  0  0  0  0  0  0  0  0  0  0
    3.9596   -1.5540   -0.7375 H   0  0  0  0  0  0  0  0  0  0  0  0
    2.5814   -1.9794    0.2462 H   0  0  0  0  0  0  0  0  0  0  0  0
    1.6439   -0.3466    1.7401 H   0  0  0  0  0  0  0  0  0  0  0  0
    1.7169    1.9329    2.6962 H   0  0  0  0  0  0  0  0  0  0  0  0
    3.5772    4.5234    1.1917 H   0  0  0  0  0  0  0  0  0  0  0  0
    4.3095    3.2035   -0.4914 H   0  0  0  0  0  0  0  0  0  0  0  0
    4.2641    0.9395   -1.4435 H   0  0  0  0  0  0  0  0  0  0  0  0
    0.2582   -1.7856   -0.6847 H   0  0  0  0  0  0  0  0  0  0  0  0
   -1.9316   -2.1423   -1.9330 H   0  0  0  0  0  0  0  0  0  0  0  0
   -2.3855   -0.4301   -4.0453 H   0  0  0  0  0  0  0  0  0  0  0  0
   -3.6909   -0.9699   -2.9772 H   0  0  0  0  0  0  0  0  0  0  0  0
   -2.0755    1.6035   -2.7311 H   0  0  0  0  0  0  0  0  0  0  0  0
   -3.8413    1.4525   -2.8216 H   0  0  0  0  0  0  0  0  0  0  0  0
   -2.5877    1.6170   -0.4041 H   0  0  0  0  0  0  0  0  0  0  0  0
   -3.9578    0.4924   -0.6036 H   0  0  0  0  0  0  0  0  0  0  0  0
   -3.4467   -0.2172    1.6304 H   0  0  0  0  0  0  0  0  0  0  0  0
   -2.4379    1.8168    1.9519 H   0  0  0  0  0  0  0  0  0  0  0  0
   -0.8366    1.2316    1.4733 H   0  0  0  0  0  0  0  0  0  0  0  0
   -1.5440    1.8393    4.1024 H   0  0  0  0  0  0  0  0  0  0  0  0
   -0.2606    0.7025    3.6551 H   0  0  0  0  0  0  0  0  0  0  0  0
   -1.6917   -0.7047    4.9719 H   0  0  0  0  0  0  0  0  0  0  0  0
   -3.1684    0.0417    4.3138 H   0  0  0  0  0  0  0  0  0  0  0  0
   -2.7918   -1.9189    3.0211 H   0  0  0  0  0  0  0  0  0  0  0  0
  1  2  2  0  0  0  0
  2  3  1  0  0  0  0
  2  4  1  0  0  0  0
  4  5  1  0  0  0  0
  5  6  1  0  0  0  0
  6  7  2  0  0  0  0
  7  8  1  0  0  0  0
  8  9  2  0  0  0  0
  9 10  1  0  0  0  0
  9 11  1  0  0  0  0
 11 12  2  0  0  0  0
  4 13  1  0  0  0  0
 13 14  1  0  0  0  0
 14 15  2  0  0  0  0
 14 16  1  0  0  0  0
 16 17  1  0  0  0  0
 17 18  1  0  0  0  0
 18 19  1  0  0  0  0
 19 20  1  0  0  0  0
 20 21  1  0  0  0  0
 21 22  2  0  0  0  0
 21 23  1  0  0  0  0
 23 24  1  0  0  0  0
 24 25  1  0  0  0  0
 25 26  1  0  0  0  0
 26 27  1  0  0  0  0
  6 12  1  0  0  0  0
 16 20  1  0  0  0  0
 23 27  1  0  0  0  0
  3 28  1  0  0  0  0
  4 29  1  0  0  0  0
  5 30  1  0  0  0  0
  5 31  1  0  0  0  0
  7 32  1  0  0  0  0
  8 33  1  0  0  0  0
 10 34  1  0  0  0  0
 11 35  1  0  0  0  0
 12 36  1  0  0  0  0
 13 37  1  0  0  0  0
 16 38  1  0  0  0  0
 17 39  1  0  0  0  0
 17 40  1  0  0  0  0
 18 41  1  0  0  0  0
 18 42  1  0  0  0  0
 19 43  1  0  0  0  0
 19 44  1  0  0  0  0
 23 45  1  0  0  0  0
 24 46  1  0  0  0  0
 24 47  1  0  0  0  0
 25 48  1  0  0  0  0
 25 49  1  0  0  0  0
 26 50  1  0  0  0  0
 26 51  1  0  0  0  0
 27 52  1  0  0  0  0
M  END
$$$$
PPY.sdf
  PyMOL2.5          3D                             0

 52 54  0  0  1  0  0  0  0  0999 V2000
    3.9336   -1.7971   -3.3555 O   0  0  0  0  0  0  0  0  0  0  0  0
    2.8571   -1.7868   -2.7804 C   0  0  0  0  0  0  0  0  0  0  0  0
    2.3813   -2.9277   -2.2235 O   0  0  0  0  0  0  0  0  0  0  0  0
    1.9268   -0.5837   -2.6019 C   0  0  2  0  0  0  0  0  0  0  0  0
    2.6938    0.6092   -2.0015 C   0  0  0  0  0  0  0  0  0  0  0  0
    2.9353    0.5339   -0.5091 C   0  0  0  0  0  0  0  0  0  0  0  0
    3.8822   -0.3429    0.0366 C   0  0  0  0  0  0  0  0  0  0  0  0
    4.0601   -0.4163    1.4200 C   0  0  0  0  0  0  0  0  0  0  0  0
    3.3034    0.3929    2.2591 C   0  0  0  0  0  0  0  0  0  0  0  0
    3.5051    0.2845    3.6030 O   0  0  0  0  0  0  0  0  0  0  0  0
    2.3758    1.2858    1.7381 C   0  0  0  0  0  0  0  0  0  0  0  0
    2.1988    1.3578    0.3554 C   0  0  0  0  0  0  0  0  0  0  0  0
    0.7333   -0.9788   -1.8477 N   0  0  0  0  0  0  0  0  0  0  0  0
   -0.4001   -0.2056   -1.7657 C   0  0  0  0  0  0  0  0  0  0  0  0
   -0.4830    0.9001   -2.2911 O   0  0  0  0  0  0  0  0  0  0  0  0
   -1.5515   -0.8743   -0.9779 C   0  0  2  0  0  0  0  0  0  0  0  0
   -2.2041   -1.9663   -1.8310 C   0  0  0  0  0  0  0  0  0  0  0  0
   -3.2771   -1.2005   -2.6002 C   0  0  0  0  0  0  0  0  0  0  0  0
   -3.7812   -0.1893   -1.5815 C   0  0  0  0  0  0  0  0  0  0  0  0
   -2.6603    0.0354   -0.6862 N   0  0  0  0  0  0  0  0  0  0  0  0
   -2.7385    0.9848    0.3108 C   0  0  0  0  0  0  0  0  0  0  0  0
   -3.7446    1.6864    0.4530 O   0  0  0  0  0  0  0  0  0  0  0  0
   -1.5221    1.1329    1.2536 C   0  0  2  0  0  0  0  0  0  0  0  0
   -1.4400    0.0017    2.2784 C   0  0  0  0  0  0  0  0  0  0  0  0
   -1.5029    0.6864    3.6343 C   0  0  0  0  0  0  0  0  0  0  0  0
   -2.1926    1.9988    3.3385 C   0  0  0  0  0  0  0  0  0  0  0  0
   -1.6150    2.3828    2.0514 N   0  0  0  0  0  0  0  0  0  0  0  0
    3.0784   -3.5895   -2.4254 H   0  0  0  0  0  0  0  0  0  0  0  0
    1.5846   -0.3161   -3.6097 H   0  0  0  0  0  0  0  0  0  0  0  0
    3.6624    0.7357   -2.5026 H   0  0  0  0  0  0  0  0  0  0  0  0
    2.1366    1.5295   -2.2202 H   0  0  0  0  0  0  0  0  0  0  0  0
    4.4998   -0.9678   -0.6039 H   0  0  0  0  0  0  0  0  0  0  0  0
    4.7937   -1.0973    1.8422 H   0  0  0  0  0  0  0  0  0  0  0  0
    2.9537    0.9498    4.0480 H   0  0  0  0  0  0  0  0  0  0  0  0
    1.7812    1.9294    2.3803 H   0  0  0  0  0  0  0  0  0  0  0  0
    1.4737    2.0648   -0.0463 H   0  0  0  0  0  0  0  0  0  0  0  0
    0.7801   -1.8857   -1.3930 H   0  0  0  0  0  0  0  0  0  0  0  0
   -1.1425   -1.2867   -0.0519 H   0  0  0  0  0  0  0  0  0  0  0  0
   -2.6828   -2.7094   -1.1813 H   0  0  0  0  0  0  0  0  0  0  0  0
   -1.5140   -2.4891   -2.4995 H   0  0  0  0  0  0  0  0  0  0  0  0
   -2.8252   -0.6814   -3.4539 H   0  0  0  0  0  0  0  0  0  0  0  0
   -4.0733   -1.8471   -2.9793 H   0  0  0  0  0  0  0  0  0  0  0  0
   -4.6091   -0.5970   -0.9908 H   0  0  0  0  0  0  0  0  0  0  0  0
   -4.1041    0.7494   -2.0420 H   0  0  0  0  0  0  0  0  0  0  0  0
   -0.6216    1.1903    0.6419 H   0  0  0  0  0  0  0  0  0  0  0  0
   -0.5072   -0.5647    2.1855 H   0  0  0  0  0  0  0  0  0  0  0  0
   -2.2752   -0.7011    2.1780 H   0  0  0  0  0  0  0  0  0  0  0  0
   -0.4876    0.8631    4.0108 H   0  0  0  0  0  0  0  0  0  0  0  0
   -2.0399    0.0874    4.3756 H   0  0  0  0  0  0  0  0  0  0  0  0
   -1.9949    2.7511    4.1069 H   0  0  0  0  0  0  0  0  0  0  0  0
   -3.2769    1.8616    3.2545 H   0  0  0  0  0  0  0  0  0  0  0  0
   -2.2637    3.0164    1.5716 H   0  0  0  0  0  0  0  0  0  0  0  0
  1  2  2  0  0  0  0
  2  3  1  0  0  0  0
  2  4  1  0  0  0  0
  4  5  1  0  0  0  0
  5  6  1  0  0  0  0
  6  7  2  0  0  0  0
  7  8  1  0  0  0  0
  8  9  2  0  0  0  0
  9 10  1  0  0  0  0
  9 11  1  0  0  0  0
 11 12  2  0  0  0  0
  4 13  1  0  0  0  0
 13 14  1  0  0  0  0
 14 15  2  0  0  0  0
 14 16  1  0  0  0  0
 16 17  1  0  0  0  0
 17 18  1  0  0  0  0
 18 19  1  0  0  0  0
 19 20  1  0  0  0  0
 20 21  1  0  0  0  0
 21 22  2  0  0  0  0
 21 23  1  0  0  0  0
 23 24  1  0  0  0  0
 24 25  1  0  0  0  0
 25 26  1  0  0  0  0
 26 27  1  0  0  0  0
  6 12  1  0  0  0  0
 16 20  1  0  0  0  0
 23 27  1  0  0  0  0
  3 28  1  0  0  0  0
  4 29  1  0  0  0  0
  5 30  1  0  0  0  0
  5 31  1  0  0  0  0
  7 32  1  0  0  0  0
  8 33  1  0  0  0  0
 10 34  1  0  0  0  0
 11 35  1  0  0  0  0
 12 36  1  0  0  0  0
 13 37  1  0  0  0  0
 16 38  1  0  0  0  0
 17 39  1  0  0  0  0
 17 40  1  0  0  0  0
 18 41  1  0  0  0  0
 18 42  1  0  0  0  0
 19 43  1  0  0  0  0
 19 44  1  0  0  0  0
 23 45  1  0  0  0  0
 24 46  1  0  0  0  0
 24 47  1  0  0  0  0
 25 48  1  0  0  0  0
 25 49  1  0  0  0  0
 26 50  1  0  0  0  0
 26 51  1  0  0  0  0
 27 52  1  0  0  0  0
M  END
$$$$
PPY.sdf
  PyMOL2.5          3D                             0

 52 54  0  0  1  0  0  0  0  0999 V2000
    0.9194    0.0665    2.5182 O   0  0  0  0  0  0  0  0  0  0  0  0
    1.7282   -0.8432    2.4082 C   0  0  0  0  0  0  0  0  0  0  0  0
    2.6137   -1.0883    3.3957 O   0  0  0  0  0  0  0  0  0  0  0  0
    1.9053   -1.7642    1.2018 C   0  0  2  0  0  0  0  0  0  0  0  0
    3.0653   -1.2815    0.3168 C   0  0  0  0  0  0  0  0  0  0  0  0
    2.7783   -0.0306   -0.4891 C   0  0  0  0  0  0  0  0  0  0  0  0
    2.9279    1.2414    0.0794 C   0  0  0  0  0  0  0  0  0  0  0  0
    2.6255    2.3854   -0.6610 C   0  0  0  0  0  0  0  0  0  0  0  0
    2.1816    2.2629   -1.9715 C   0  0  0  0  0  0  0  0  0  0  0  0
    1.8985    3.4074   -2.6552 O   0  0  0  0  0  0  0  0  0  0  0  0
    2.0333    1.0117   -2.5585 C   0  0  0  0  0  0  0  0  0  0  0  0
    2.3314   -0.1331   -1.8161 C   0  0  0  0  0  0  0  0  0  0  0  0
    0.6384   -1.8292    0.4736 N   0  0  0  0  0  0  0  0  0  0  0  0
   -0.3050   -2.7982    0.7474 C   0  0  0  0  0  0  0  0  0  0  0  0
   -0.0335   -3.8404    1.3380 O   0  0  0  0  0  0  0  0  0  0  0  0
   -1.6824   -2.5482    0.0945 C   0  0  2  0  0  0  0  0  0  0  0  0
   -1.7711   -3.2281   -1.2732 C   0  0  0  0  0  0  0  0  0  0  0  0
   -1.3711   -2.1317   -2.2553 C   0  0  0  0  0  0  0  0  0  0  0  0
   -1.9564   -0.8762   -1.6301 C   0  0  0  0  0  0  0  0  0  0  0  0
   -1.8988   -1.1223   -0.1982 N   0  0  0  0  0  0  0  0  0  0  0  0
   -2.3510   -0.2707    0.7931 C   0  0  0  0  0  0  0  0  0  0  0  0
   -2.5501   -0.6784    1.9400 O   0  0  0  0  0  0  0  0  0  0  0  0
   -2.5926    1.2085    0.4029 C   0  0  2  0  0  0  0  0  0  0  0  0
   -1.2953    1.9401    0.0557 C   0  0  0  0  0  0  0  0  0  0  0  0
   -1.1769    3.0582    1.0783 C   0  0  0  0  0  0  0  0  0  0  0  0
   -2.0375    2.5845    2.2271 C   0  0  0  0  0  0  0  0  0  0  0  0
   -3.1720    1.9561    1.5471 N   0  0  0  0  0  0  0  0  0  0  0  0
    2.3507   -0.4683    4.1090 H   0  0  0  0  0  0  0  0  0  0  0  0
    2.1372   -2.7633    1.5895 H   0  0  0  0  0  0  0  0  0  0  0  0
    3.9641   -1.1117    0.9239 H   0  0  0  0  0  0  0  0  0  0  0  0
    3.3307   -2.0860   -0.3822 H   0  0  0  0  0  0  0  0  0  0  0  0
    3.2749    1.3571    1.1037 H   0  0  0  0  0  0  0  0  0  0  0  0
    2.7364    3.3699   -0.2149 H   0  0  0  0  0  0  0  0  0  0  0  0
    1.6712    3.1771   -3.5706 H   0  0  0  0  0  0  0  0  0  0  0  0
    1.6914    0.9075   -3.5831 H   0  0  0  0  0  0  0  0  0  0  0  0
    2.2122   -1.1110   -2.2787 H   0  0  0  0  0  0  0  0  0  0  0  0
    0.2389   -0.9292    0.2253 H   0  0  0  0  0  0  0  0  0  0  0  0
   -2.4521   -2.9142    0.7831 H   0  0  0  0  0  0  0  0  0  0  0  0
   -2.8089   -3.5251   -1.4686 H   0  0  0  0  0  0  0  0  0  0  0  0
   -1.1397   -4.1167   -1.3664 H   0  0  0  0  0  0  0  0  0  0  0  0
   -1.7453   -2.3099   -3.2671 H   0  0  0  0  0  0  0  0  0  0  0  0
   -0.2789   -2.0573   -2.3056 H   0  0  0  0  0  0  0  0  0  0  0  0
   -1.3985    0.0225   -1.9013 H   0  0  0  0  0  0  0  0  0  0  0  0
   -3.0071   -0.7441   -1.9103 H   0  0  0  0  0  0  0  0  0  0  0  0
   -3.3077    1.2338   -0.4256 H   0  0  0  0  0  0  0  0  0  0  0  0
   -1.3235    2.3568   -0.9568 H   0  0  0  0  0  0  0  0  0  0  0  0
   -0.4221    1.2838    0.1261 H   0  0  0  0  0  0  0  0  0  0  0  0
   -0.1397    3.2368    1.3773 H   0  0  0  0  0  0  0  0  0  0  0  0
   -1.5751    3.9906    0.6596 H   0  0  0  0  0  0  0  0  0  0  0  0
   -2.3619    3.4097    2.8670 H   0  0  0  0  0  0  0  0  0  0  0  0
   -1.5008    1.8547    2.8443 H   0  0  0  0  0  0  0  0  0  0  0  0
   -3.5995    1.2781    2.1872 H   0  0  0  0  0  0  0  0  0  0  0  0
  1  2  2  0  0  0  0
  2  3  1  0  0  0  0
  2  4  1  0  0  0  0
  4  5  1  0  0  0  0
  5  6  1  0  0  0  0
  6  7  2  0  0  0  0
  7  8  1  0  0  0  0
  8  9  2  0  0  0  0
  9 10  1  0  0  0  0
  9 11  1  0  0  0  0
 11 12  2  0  0  0  0
  4 13  1  0  0  0  0
 13 14  1  0  0  0  0
 14 15  2  0  0  0  0
 14 16  1  0  0  0  0
 16 17  1  0  0  0  0
 17 18  1  0  0  0  0
 18 19  1  0  0  0  0
 19 20  1  0  0  0  0
 20 21  1  0  0  0  0
 21 22  2  0  0  0  0
 21 23  1  0  0  0  0
 23 24  1  0  0  0  0
 24 25  1  0  0  0  0
 25 26  1  0  0  0  0
 26 27  1  0  0  0  0
  6 12  1  0  0  0  0
 16 20  1  0  0  0  0
 23 27  1  0  0  0  0
  3 28  1  0  0  0  0
  4 29  1  0  0  0  0
  5 30  1  0  0  0  0
  5 31  1  0  0  0  0
  7 32  1  0  0  0  0
  8 33  1  0  0  0  0
 10 34  1  0  0  0  0
 11 35  1  0  0  0  0
 12 36  1  0  0  0  0
 13 37  1  0  0  0  0
 16 38  1  0  0  0  0
 17 39  1  0  0  0  0
 17 40  1  0  0  0  0
 18 41  1  0  0  0  0
 18 42  1  0  0  0  0
 19 43  1  0  0  0  0
 19 44  1  0  0  0  0
 23 45  1  0  0  0  0
 24 46  1  0  0  0  0
 24 47  1  0  0  0  0
 25 48  1  0  0  0  0
 25 49  1  0  0  0  0
 26 50  1  0  0  0  0
 26 51  1  0  0  0  0
 27 52  1  0  0  0  0
M  END
$$$$
PPY.sdf
  PyMOL2.5          3D                             0

 52 54  0  0  1  0  0  0  0  0999 V2000
    2.2907    0.8710   -2.8735 O   0  0  0  0  0  0  0  0  0  0  0  0
    2.7021    1.4954   -1.9060 C   0  0  0  0  0  0  0  0  0  0  0  0
    3.5378    2.5402   -2.0810 O   0  0  0  0  0  0  0  0  0  0  0  0
    2.3700    1.2279   -0.4373 C   0  0  2  0  0  0  0  0  0  0  0  0
    3.6109    0.7950    0.3585 C   0  0  0  0  0  0  0  0  0  0  0  0
    4.1586   -0.5684   -0.0054 C   0  0  0  0  0  0  0  0  0  0  0  0
    5.0793   -0.7141   -1.0519 C   0  0  0  0  0  0  0  0  0  0  0  0
    5.5621   -1.9777   -1.3952 C   0  0  0  0  0  0  0  0  0  0  0  0
    5.1310   -3.0961   -0.6926 C   0  0  0  0  0  0  0  0  0  0  0  0
    5.6309   -4.3095   -1.0615 O   0  0  0  0  0  0  0  0  0  0  0  0
    4.2218   -2.9739    0.3521 C   0  0  0  0  0  0  0  0  0  0  0  0
    3.7369   -1.7100    0.6946 C   0  0  0  0  0  0  0  0  0  0  0  0
    1.2922    0.2369   -0.3704 N   0  0  0  0  0  0  0  0  0  0  0  0
   -0.0318    0.6314   -0.3893 C   0  0  0  0  0  0  0  0  0  0  0  0
   -0.3730    1.8091   -0.3001 O   0  0  0  0  0  0  0  0  0  0  0  0
   -1.0241   -0.5335   -0.6029 C   0  0  2  0  0  0  0  0  0  0  0  0
   -1.1602   -0.8539   -2.0915 C   0  0  0  0  0  0  0  0  0  0  0  0
   -2.2783    0.0832   -2.5432 C   0  0  0  0  0  0  0  0  0  0  0  0
   -3.2225    0.1045   -1.3490 C   0  0  0  0  0  0  0  0  0  0  0  0
   -2.3726   -0.1566   -0.1999 N   0  0  0  0  0  0  0  0  0  0  0  0
   -2.7411   -0.1752    1.1257 C   0  0  0  0  0  0  0  0  0  0  0  0
   -1.9593   -0.5419    2.0091 O   0  0  0  0  0  0  0  0  0  0  0  0
   -4.1675    0.3069    1.4702 C   0  0  2  0  0  0  0  0  0  0  0  0
   -4.2373    1.8315    1.4801 C   0  0  0  0  0  0  0  0  0  0  0  0
   -4.2511    2.1884    2.9531 C   0  0  0  0  0  0  0  0  0  0  0  0
   -5.0056    1.0306    3.5673 C   0  0  0  0  0  0  0  0  0  0  0  0
   -4.5368   -0.1519    2.8401 N   0  0  0  0  0  0  0  0  0  0  0  0
    3.6206    2.6170   -3.0553 H   0  0  0  0  0  0  0  0  0  0  0  0
    1.9972    2.1724   -0.0231 H   0  0  0  0  0  0  0  0  0  0  0  0
    4.4121    1.5372    0.2483 H   0  0  0  0  0  0  0  0  0  0  0  0
    3.3616    0.7915    1.4283 H   0  0  0  0  0  0  0  0  0  0  0  0
    5.4330    0.1521   -1.6065 H   0  0  0  0  0  0  0  0  0  0  0  0
    6.2756   -2.0892   -2.2069 H   0  0  0  0  0  0  0  0  0  0  0  0
    5.2682   -4.9877   -0.4684 H   0  0  0  0  0  0  0  0  0  0  0  0
    3.8827   -3.8417    0.9089 H   0  0  0  0  0  0  0  0  0  0  0  0
    3.0264   -1.6196    1.5150 H   0  0  0  0  0  0  0  0  0  0  0  0
    1.5072   -0.6723   -0.7650 H   0  0  0  0  0  0  0  0  0  0  0  0
   -0.6826   -1.4014   -0.0273 H   0  0  0  0  0  0  0  0  0  0  0  0
   -1.4844   -1.8939   -2.2199 H   0  0  0  0  0  0  0  0  0  0  0  0
   -0.2415   -0.7066   -2.6665 H   0  0  0  0  0  0  0  0  0  0  0  0
   -1.8740    1.0869   -2.7210 H   0  0  0  0  0  0  0  0  0  0  0  0
   -2.7699   -0.2513   -3.4609 H   0  0  0  0  0  0  0  0  0  0  0  0
   -3.7446    1.0590   -1.2445 H   0  0  0  0  0  0  0  0  0  0  0  0
   -3.9606   -0.7021   -1.4129 H   0  0  0  0  0  0  0  0  0  0  0  0
   -4.8771   -0.1223    0.7561 H   0  0  0  0  0  0  0  0  0  0  0  0
   -3.4086    2.3240    0.9621 H   0  0  0  0  0  0  0  0  0  0  0  0
   -5.1757    2.1611    1.0176 H   0  0  0  0  0  0  0  0  0  0  0  0
   -4.7323    3.1521    3.1424 H   0  0  0  0  0  0  0  0  0  0  0  0
   -3.2265    2.2302    3.3422 H   0  0  0  0  0  0  0  0  0  0  0  0
   -6.0846    1.1459    3.4138 H   0  0  0  0  0  0  0  0  0  0  0  0
   -4.8238    0.9407    4.6424 H   0  0  0  0  0  0  0  0  0  0  0  0
   -3.6613   -0.4712    3.2759 H   0  0  0  0  0  0  0  0  0  0  0  0
  1  2  2  0  0  0  0
  2  3  1  0  0  0  0
  2  4  1  0  0  0  0
  4  5  1  0  0  0  0
  5  6  1  0  0  0  0
  6  7  2  0  0  0  0
  7  8  1  0  0  0  0
  8  9  2  0  0  0  0
  9 10  1  0  0  0  0
  9 11  1  0  0  0  0
 11 12  2  0  0  0  0
  4 13  1  0  0  0  0
 13 14  1  0  0  0  0
 14 15  2  0  0  0  0
 14 16  1  0  0  0  0
 16 17  1  0  0  0  0
 17 18  1  0  0  0  0
 18 19  1  0  0  0  0
 19 20  1  0  0  0  0
 20 21  1  0  0  0  0
 21 22  2  0  0  0  0
 21 23  1  0  0  0  0
 23 24  1  0  0  0  0
 24 25  1  0  0  0  0
 25 26  1  0  0  0  0
 26 27  1  0  0  0  0
  6 12  1  0  0  0  0
 16 20  1  0  0  0  0
 23 27  1  0  0  0  0
  3 28  1  0  0  0  0
  4 29  1  0  0  0  0
  5 30  1  0  0  0  0
  5 31  1  0  0  0  0
  7 32  1  0  0  0  0
  8 33  1  0  0  0  0
 10 34  1  0  0  0  0
 11 35  1  0  0  0  0
 12 36  1  0  0  0  0
 13 37  1  0  0  0  0
 16 38  1  0  0  0  0
 17 39  1  0  0  0  0
 17 40  1  0  0  0  0
 18 41  1  0  0  0  0
 18 42  1  0  0  0  0
 19 43  1  0  0  0  0
 19 44  1  0  0  0  0
 23 45  1  0  0  0  0
 24 46  1  0  0  0  0
 24 47  1  0  0  0  0
 25 48  1  0  0  0  0
 25 49  1  0  0  0  0
 26 50  1  0  0  0  0
 26 51  1  0  0  0  0
 27 52  1  0  0  0  0
M  END
$$$$
PPY.sdf
  PyMOL2.5          3D                             0

 52 54  0  0  1  0  0  0  0  0999 V2000
    2.3735    0.3504   -3.1154 O   0  0  0  0  0  0  0  0  0  0  0  0
    2.8292    1.1738   -2.3347 C   0  0  0  0  0  0  0  0  0  0  0  0
    3.7019    2.1066   -2.7707 O   0  0  0  0  0  0  0  0  0  0  0  0
    2.5272    1.2845   -0.8397 C   0  0  2  0  0  0  0  0  0  0  0  0
    3.7591    0.9447    0.0134 C   0  0  0  0  0  0  0  0  0  0  0  0
    4.1997   -0.5022   -0.0507 C   0  0  0  0  0  0  0  0  0  0  0  0
    3.7072   -1.4324    0.8771 C   0  0  0  0  0  0  0  0  0  0  0  0
    4.0894   -2.7721    0.8056 C   0  0  0  0  0  0  0  0  0  0  0  0
    4.9658   -3.1856   -0.1894 C   0  0  0  0  0  0  0  0  0  0  0  0
    5.3108   -4.5040   -0.2240 O   0  0  0  0  0  0  0  0  0  0  0  0
    5.4712   -2.2791   -1.1152 C   0  0  0  0  0  0  0  0  0  0  0  0
    5.0886   -0.9375   -1.0441 C   0  0  0  0  0  0  0  0  0  0  0  0
    1.3773    0.4342   -0.5241 N   0  0  0  0  0  0  0  0  0  0  0  0
    0.0887    0.9193   -0.6492 C   0  0  0  0  0  0  0  0  0  0  0  0
   -0.1532    2.1012   -0.8861 O   0  0  0  0  0  0  0  0  0  0  0  0
   -0.9941   -0.1752   -0.5547 C   0  0  2  0  0  0  0  0  0  0  0  0
   -1.1649   -0.8325   -1.9306 C   0  0  0  0  0  0  0  0  0  0  0  0
   -2.6725   -0.9978   -2.0820 C   0  0  0  0  0  0  0  0  0  0  0  0
   -3.2336    0.2031   -1.3386 C   0  0  0  0  0  0  0  0  0  0  0  0
   -2.3044    0.3816   -0.2408 N   0  0  0  0  0  0  0  0  0  0  0  0
   -2.5699    0.8780    1.0187 C   0  0  0  0  0  0  0  0  0  0  0  0
   -1.7220    0.8240    1.9143 O   0  0  0  0  0  0  0  0  0  0  0  0
   -3.9670    1.5025    1.2503 C   0  0  2  0  0  0  0  0  0  0  0  0
   -4.0423    2.3169    2.5365 C   0  0  0  0  0  0  0  0  0  0  0  0
   -4.4677    1.3239    3.6114 C   0  0  0  0  0  0  0  0  0  0  0  0
   -4.8207    0.0473    2.8659 C   0  0  0  0  0  0  0  0  0  0  0  0
   -4.9901    0.4445    1.4621 N   0  0  0  0  0  0  0  0  0  0  0  0
    3.7511    1.9493   -3.7374 H   0  0  0  0  0  0  0  0  0  0  0  0
    2.2445    2.3273   -0.6510 H   0  0  0  0  0  0  0  0  0  0  0  0
    3.5452    1.1939    1.0615 H   0  0  0  0  0  0  0  0  0  0  0  0
    4.6053    1.5830   -0.2720 H   0  0  0  0  0  0  0  0  0  0  0  0
    3.0218   -1.1193    1.6629 H   0  0  0  0  0  0  0  0  0  0  0  0
    3.7068   -3.4900    1.5257 H   0  0  0  0  0  0  0  0  0  0  0  0
    5.9325   -4.6424   -0.9570 H   0  0  0  0  0  0  0  0  0  0  0  0
    6.1586   -2.5944   -1.8937 H   0  0  0  0  0  0  0  0  0  0  0  0
    5.4925   -0.2350   -1.7701 H   0  0  0  0  0  0  0  0  0  0  0  0
    1.5090   -0.5611   -0.6670 H   0  0  0  0  0  0  0  0  0  0  0  0
   -0.7255   -0.9055    0.2174 H   0  0  0  0  0  0  0  0  0  0  0  0
   -0.7823   -0.1909   -2.7343 H   0  0  0  0  0  0  0  0  0  0  0  0
   -0.6374   -1.7893   -1.9960 H   0  0  0  0  0  0  0  0  0  0  0  0
   -2.9902   -1.9248   -1.5893 H   0  0  0  0  0  0  0  0  0  0  0  0
   -2.9943   -1.0373   -3.1262 H   0  0  0  0  0  0  0  0  0  0  0  0
   -4.2597    0.0388   -1.0080 H   0  0  0  0  0  0  0  0  0  0  0  0
   -3.1949    1.1065   -1.9570 H   0  0  0  0  0  0  0  0  0  0  0  0
   -4.2153    2.1283    0.3862 H   0  0  0  0  0  0  0  0  0  0  0  0
   -3.1024    2.8142    2.7964 H   0  0  0  0  0  0  0  0  0  0  0  0
   -4.8117    3.0936    2.4423 H   0  0  0  0  0  0  0  0  0  0  0  0
   -3.6603    1.1451    4.3294 H   0  0  0  0  0  0  0  0  0  0  0  0
   -5.3295    1.7139    4.1643 H   0  0  0  0  0  0  0  0  0  0  0  0
   -5.7305   -0.4171    3.2589 H   0  0  0  0  0  0  0  0  0  0  0  0
   -4.0134   -0.6891    2.9507 H   0  0  0  0  0  0  0  0  0  0  0  0
   -5.9069    0.8841    1.3727 H   0  0  0  0  0  0  0  0  0  0  0  0
  1  2  2  0  0  0  0
  2  3  1  0  0  0  0
  2  4  1  0  0  0  0
  4  5  1  0  0  0  0
  5  6  1  0  0  0  0
  6  7  2  0  0  0  0
  7  8  1  0  0  0  0
  8  9  2  0  0  0  0
  9 10  1  0  0  0  0
  9 11  1  0  0  0  0
 11 12  2  0  0  0  0
  4 13  1  0  0  0  0
 13 14  1  0  0  0  0
 14 15  2  0  0  0  0
 14 16  1  0  0  0  0
 16 17  1  0  0  0  0
 17 18  1  0  0  0  0
 18 19  1  0  0  0  0
 19 20  1  0  0  0  0
 20 21  1  0  0  0  0
 21 22  2  0  0  0  0
 21 23  1  0  0  0  0
 23 24  1  0  0  0  0
 24 25  1  0  0  0  0
 25 26  1  0  0  0  0
 26 27  1  0  0  0  0
  6 12  1  0  0  0  0
 16 20  1  0  0  0  0
 23 27  1  0  0  0  0
  3 28  1  0  0  0  0
  4 29  1  0  0  0  0
  5 30  1  0  0  0  0
  5 31  1  0  0  0  0
  7 32  1  0  0  0  0
  8 33  1  0  0  0  0
 10 34  1  0  0  0  0
 11 35  1  0  0  0  0
 12 36  1  0  0  0  0
 13 37  1  0  0  0  0
 16 38  1  0  0  0  0
 17 39  1  0  0  0  0
 17 40  1  0  0  0  0
 18 41  1  0  0  0  0
 18 42  1  0  0  0  0
 19 43  1  0  0  0  0
 19 44  1  0  0  0  0
 23 45  1  0  0  0  0
 24 46  1  0  0  0  0
 24 47  1  0  0  0  0
 25 48  1  0  0  0  0
 25 49  1  0  0  0  0
 26 50  1  0  0  0  0
 26 51  1  0  0  0  0
 27 52  1  0  0  0  0
M  END
$$$$
PPY.sdf
  PyMOL2.5          3D                             0

 52 54  0  0  1  0  0  0  0  0999 V2000
    1.4039   -1.2101   -4.6050 O   0  0  0  0  0  0  0  0  0  0  0  0
    2.2508   -0.7358   -3.8626 C   0  0  0  0  0  0  0  0  0  0  0  0
    3.4990   -0.5045   -4.3252 O   0  0  0  0  0  0  0  0  0  0  0  0
    2.0971   -0.3961   -2.3796 C   0  0  2  0  0  0  0  0  0  0  0  0
    2.6273   -1.5856   -1.5704 C   0  0  0  0  0  0  0  0  0  0  0  0
    2.6007   -1.3648   -0.0769 C   0  0  0  0  0  0  0  0  0  0  0  0
    3.5513   -0.5405    0.5410 C   0  0  0  0  0  0  0  0  0  0  0  0
    3.5198   -0.3413    1.9223 C   0  0  0  0  0  0  0  0  0  0  0  0
    2.5424   -0.9663    2.6865 C   0  0  0  0  0  0  0  0  0  0  0  0
    2.5464   -0.7473    4.0325 O   0  0  0  0  0  0  0  0  0  0  0  0
    1.5900   -1.7857    2.0915 C   0  0  0  0  0  0  0  0  0  0  0  0
    1.6169   -1.9797    0.7103 C   0  0  0  0  0  0  0  0  0  0  0  0
    0.6938   -0.1144   -2.0967 N   0  0  0  0  0  0  0  0  0  0  0  0
    0.1005    1.0695   -2.4712 C   0  0  0  0  0  0  0  0  0  0  0  0
    0.7269    1.9779   -3.0116 O   0  0  0  0  0  0  0  0  0  0  0  0
   -1.4236    1.1106   -2.2194 C   0  0  2  0  0  0  0  0  0  0  0  0
   -2.0615    2.4281   -2.6614 C   0  0  0  0  0  0  0  0  0  0  0  0
   -1.9487    3.2992   -1.4183 C   0  0  0  0  0  0  0  0  0  0  0  0
   -2.1925    2.3162   -0.2825 C   0  0  0  0  0  0  0  0  0  0  0  0
   -1.7353    1.0300   -0.7856 N   0  0  0  0  0  0  0  0  0  0  0  0
   -1.7894   -0.1886   -0.1348 C   0  0  0  0  0  0  0  0  0  0  0  0
   -1.4641   -1.2212   -0.7324 O   0  0  0  0  0  0  0  0  0  0  0  0
   -2.3386   -0.2097    1.3122 C   0  0  2  0  0  0  0  0  0  0  0  0
   -1.5367    0.5727    2.3454 C   0  0  0  0  0  0  0  0  0  0  0  0
   -1.6187   -0.2452    3.6327 C   0  0  0  0  0  0  0  0  0  0  0  0
   -2.5209   -1.4183    3.2993 C   0  0  0  0  0  0  0  0  0  0  0  0
   -2.3188   -1.5803    1.8693 N   0  0  0  0  0  0  0  0  0  0  0  0
    3.4379   -0.7298   -5.2774 H   0  0  0  0  0  0  0  0  0  0  0  0
    2.6673    0.5184   -2.1764 H   0  0  0  0  0  0  0  0  0  0  0  0
    3.6605   -1.8138   -1.8652 H   0  0  0  0  0  0  0  0  0  0  0  0
    2.0531   -2.4901   -1.8151 H   0  0  0  0  0  0  0  0  0  0  0  0
    4.3228   -0.0490   -0.0472 H   0  0  0  0  0  0  0  0  0  0  0  0
    4.2568    0.2976    2.3999 H   0  0  0  0  0  0  0  0  0  0  0  0
    1.8369   -1.2811    4.4259 H   0  0  0  0  0  0  0  0  0  0  0  0
    0.8134   -2.2726    2.6729 H   0  0  0  0  0  0  0  0  0  0  0  0
    0.8540   -2.6087    0.2540 H   0  0  0  0  0  0  0  0  0  0  0  0
    0.0845   -0.8641   -1.7637 H   0  0  0  0  0  0  0  0  0  0  0  0
   -1.8734    0.2678   -2.7580 H   0  0  0  0  0  0  0  0  0  0  0  0
   -3.1217    2.2654   -2.8925 H   0  0  0  0  0  0  0  0  0  0  0  0
   -1.5921    2.8847   -3.5372 H   0  0  0  0  0  0  0  0  0  0  0  0
   -0.9371    3.7161   -1.3443 H   0  0  0  0  0  0  0  0  0  0  0  0
   -2.6591    4.1305   -1.4127 H   0  0  0  0  0  0  0  0  0  0  0  0
   -3.2572    2.2354   -0.0407 H   0  0  0  0  0  0  0  0  0  0  0  0
   -1.6355    2.6042    0.6103 H   0  0  0  0  0  0  0  0  0  0  0  0
   -3.3776    0.1429    1.2822 H   0  0  0  0  0  0  0  0  0  0  0  0
   -0.4923    0.7136    2.0451 H   0  0  0  0  0  0  0  0  0  0  0  0
   -1.9739    1.5616    2.5174 H   0  0  0  0  0  0  0  0  0  0  0  0
   -2.0156    0.3449    4.4649 H   0  0  0  0  0  0  0  0  0  0  0  0
   -0.6193   -0.5904    3.9185 H   0  0  0  0  0  0  0  0  0  0  0  0
   -3.5683   -1.1796    3.5175 H   0  0  0  0  0  0  0  0  0  0  0  0
   -2.2457   -2.3184    3.8559 H   0  0  0  0  0  0  0  0  0  0  0  0
   -3.0364   -2.1546    1.4309 H   0  0  0  0  0  0  0  0  0  0  0  0
  1  2  2  0  0  0  0
  2  3  1  0  0  0  0
  2  4  1  0  0  0  0
  4  5  1  0  0  0  0
  5  6  1  0  0  0  0
  6  7  2  0  0  0  0
  7  8  1  0  0  0  0
  8  9  2  0  0  0  0
  9 10  1  0  0  0  0
  9 11  1  0  0  0  0
 11 12  2  0  0  0  0
  4 13  1  0  0  0  0
 13 14  1  0  0  0  0
 14 15  2  0  0  0  0
 14 16  1  0  0  0  0
 16 17  1  0  0  0  0
 17 18  1  0  0  0  0
 18 19  1  0  0  0  0
 19 20  1  0  0  0  0
 20 21  1  0  0  0  0
 21 22  2  0  0  0  0
 21 23  1  0  0  0  0
 23 24  1  0  0  0  0
 24 25  1  0  0  0  0
 25 26  1  0  0  0  0
 26 27  1  0  0  0  0
  6 12  1  0  0  0  0
 16 20  1  0  0  0  0
 23 27  1  0  0  0  0
  3 28  1  0  0  0  0
  4 29  1  0  0  0  0
  5 30  1  0  0  0  0
  5 31  1  0  0  0  0
  7 32  1  0  0  0  0
  8 33  1  0  0  0  0
 10 34  1  0  0  0  0
 11 35  1  0  0  0  0
 12 36  1  0  0  0  0
 13 37  1  0  0  0  0
 16 38  1  0  0  0  0
 17 39  1  0  0  0  0
 17 40  1  0  0  0  0
 18 41  1  0  0  0  0
 18 42  1  0  0  0  0
 19 43  1  0  0  0  0
 19 44  1  0  0  0  0
 23 45  1  0  0  0  0
 24 46  1  0  0  0  0
 24 47  1  0  0  0  0
 25 48  1  0  0  0  0
 25 49  1  0  0  0  0
 26 50  1  0  0  0  0
 26 51  1  0  0  0  0
 27 52  1  0  0  0  0
M  END
$$$$
PPY.sdf
  PyMOL2.5          3D                             0

 52 54  0  0  1  0  0  0  0  0999 V2000
    1.1797   -2.7157   -2.4063 O   0  0  0  0  0  0  0  0  0  0  0  0
    1.9749   -1.8058   -2.2243 C   0  0  0  0  0  0  0  0  0  0  0  0
    3.2465   -1.9236   -2.6589 O   0  0  0  0  0  0  0  0  0  0  0  0
    1.6967   -0.4791   -1.5260 C   0  0  2  0  0  0  0  0  0  0  0  0
    1.7127   -0.6711   -0.0021 C   0  0  0  0  0  0  0  0  0  0  0  0
    3.0889   -0.9431    0.5572 C   0  0  0  0  0  0  0  0  0  0  0  0
    3.4440   -2.2308    0.9822 C   0  0  0  0  0  0  0  0  0  0  0  0
    4.7216   -2.4788    1.4857 C   0  0  0  0  0  0  0  0  0  0  0  0
    5.6444   -1.4431    1.5650 C   0  0  0  0  0  0  0  0  0  0  0  0
    6.8814   -1.7303    2.0620 O   0  0  0  0  0  0  0  0  0  0  0  0
    5.3112   -0.1581    1.1500 C   0  0  0  0  0  0  0  0  0  0  0  0
    4.0327    0.0908    0.6466 C   0  0  0  0  0  0  0  0  0  0  0  0
    0.3889    0.0035   -1.9714 N   0  0  0  0  0  0  0  0  0  0  0  0
    0.0439    1.3344   -1.8692 C   0  0  0  0  0  0  0  0  0  0  0  0
    0.8529    2.1992   -1.5408 O   0  0  0  0  0  0  0  0  0  0  0  0
   -1.4508    1.6167   -2.1408 C   0  0  2  0  0  0  0  0  0  0  0  0
   -1.7147    3.1048   -2.4088 C   0  0  0  0  0  0  0  0  0  0  0  0
   -3.0644    3.3580   -1.7534 C   0  0  0  0  0  0  0  0  0  0  0  0
   -3.0074    2.4806   -0.5148 C   0  0  0  0  0  0  0  0  0  0  0  0
   -2.2591    1.3130   -0.9484 N   0  0  0  0  0  0  0  0  0  0  0  0
   -2.4849    0.0068   -0.5550 C   0  0  0  0  0  0  0  0  0  0  0  0
   -2.0391   -0.9268   -1.2297 O   0  0  0  0  0  0  0  0  0  0  0  0
   -3.3210   -0.2212    0.7239 C   0  0  2  0  0  0  0  0  0  0  0  0
   -2.7869    0.4971    1.9630 C   0  0  0  0  0  0  0  0  0  0  0  0
   -2.8798   -0.5175    3.0992 C   0  0  0  0  0  0  0  0  0  0  0  0
   -3.6849   -1.6656    2.5248 C   0  0  0  0  0  0  0  0  0  0  0  0
   -3.2919   -1.6412    1.1264 N   0  0  0  0  0  0  0  0  0  0  0  0
    3.2805   -2.8175   -3.0581 H   0  0  0  0  0  0  0  0  0  0  0  0
    2.4464    0.2544   -1.8457 H   0  0  0  0  0  0  0  0  0  0  0  0
    1.3170    0.2227    0.4986 H   0  0  0  0  0  0  0  0  0  0  0  0
    1.0303   -1.4839    0.2818 H   0  0  0  0  0  0  0  0  0  0  0  0
    2.7299   -3.0497    0.9244 H   0  0  0  0  0  0  0  0  0  0  0  0
    4.9955   -3.4769    1.8149 H   0  0  0  0  0  0  0  0  0  0  0  0
    7.4111   -0.9165    2.0535 H   0  0  0  0  0  0  0  0  0  0  0  0
    6.0251    0.6570    1.2086 H   0  0  0  0  0  0  0  0  0  0  0  0
    3.7741    1.0978    0.3227 H   0  0  0  0  0  0  0  0  0  0  0  0
   -0.3822   -0.6733   -1.9473 H   0  0  0  0  0  0  0  0  0  0  0  0
   -1.8023    1.0018   -2.9779 H   0  0  0  0  0  0  0  0  0  0  0  0
   -0.9629    3.7532   -1.9446 H   0  0  0  0  0  0  0  0  0  0  0  0
   -1.7249    3.3306   -3.4797 H   0  0  0  0  0  0  0  0  0  0  0  0
   -3.8677    3.0199   -2.4191 H   0  0  0  0  0  0  0  0  0  0  0  0
   -3.2339    4.4120   -1.5172 H   0  0  0  0  0  0  0  0  0  0  0  0
   -2.4361    2.9654    0.2840 H   0  0  0  0  0  0  0  0  0  0  0  0
   -4.0042    2.2247   -0.1493 H   0  0  0  0  0  0  0  0  0  0  0  0
   -4.3585    0.0680    0.5180 H   0  0  0  0  0  0  0  0  0  0  0  0
   -3.4047    1.3722    2.1938 H   0  0  0  0  0  0  0  0  0  0  0  0
   -1.7522    0.8390    1.8472 H   0  0  0  0  0  0  0  0  0  0  0  0
   -1.8727   -0.8554    3.3729 H   0  0  0  0  0  0  0  0  0  0  0  0
   -3.3460   -0.0927    3.9935 H   0  0  0  0  0  0  0  0  0  0  0  0
   -4.7607   -1.4845    2.6302 H   0  0  0  0  0  0  0  0  0  0  0  0
   -3.4406   -2.6182    3.0028 H   0  0  0  0  0  0  0  0  0  0  0  0
   -3.8956   -2.2035    0.5304 H   0  0  0  0  0  0  0  0  0  0  0  0
  1  2  2  0  0  0  0
  2  3  1  0  0  0  0
  2  4  1  0  0  0  0
  4  5  1  0  0  0  0
  5  6  1  0  0  0  0
  6  7  2  0  0  0  0
  7  8  1  0  0  0  0
  8  9  2  0  0  0  0
  9 10  1  0  0  0  0
  9 11  1  0  0  0  0
 11 12  2  0  0  0  0
  4 13  1  0  0  0  0
 13 14  1  0  0  0  0
 14 15  2  0  0  0  0
 14 16  1  0  0  0  0
 16 17  1  0  0  0  0
 17 18  1  0  0  0  0
 18 19  1  0  0  0  0
 19 20  1  0  0  0  0
 20 21  1  0  0  0  0
 21 22  2  0  0  0  0
 21 23  1  0  0  0  0
 23 24  1  0  0  0  0
 24 25  1  0  0  0  0
 25 26  1  0  0  0  0
 26 27  1  0  0  0  0
  6 12  1  0  0  0  0
 16 20  1  0  0  0  0
 23 27  1  0  0  0  0
  3 28  1  0  0  0  0
  4 29  1  0  0  0  0
  5 30  1  0  0  0  0
  5 31  1  0  0  0  0
  7 32  1  0  0  0  0
  8 33  1  0  0  0  0
 10 34  1  0  0  0  0
 11 35  1  0  0  0  0
 12 36  1  0  0  0  0
 13 37  1  0  0  0  0
 16 38  1  0  0  0  0
 17 39  1  0  0  0  0
 17 40  1  0  0  0  0
 18 41  1  0  0  0  0
 18 42  1  0  0  0  0
 19 43  1  0  0  0  0
 19 44  1  0  0  0  0
 23 45  1  0  0  0  0
 24 46  1  0  0  0  0
 24 47  1  0  0  0  0
 25 48  1  0  0  0  0
 25 49  1  0  0  0  0
 26 50  1  0  0  0  0
 26 51  1  0  0  0  0
 27 52  1  0  0  0  0
M  END
$$$$
PPY.sdf
  PyMOL2.5          3D                             0

 52 54  0  0  1  0  0  0  0  0999 V2000
    0.5412   -1.0124    1.6732 O   0  0  0  0  0  0  0  0  0  0  0  0
    1.1882   -1.2123    0.6543 C   0  0  0  0  0  0  0  0  0  0  0  0
    1.6046   -2.4502    0.3338 O   0  0  0  0  0  0  0  0  0  0  0  0
    1.5900   -0.1422   -0.3561 C   0  0  2  0  0  0  0  0  0  0  0  0
    2.7774    0.6652    0.1777 C   0  0  0  0  0  0  0  0  0  0  0  0
    4.0664   -0.1189    0.2328 C   0  0  0  0  0  0  0  0  0  0  0  0
    4.5785   -0.5586    1.4617 C   0  0  0  0  0  0  0  0  0  0  0  0
    5.7628   -1.2952    1.5091 C   0  0  0  0  0  0  0  0  0  0  0  0
    6.4360   -1.5948    0.3315 C   0  0  0  0  0  0  0  0  0  0  0  0
    7.5878   -2.3184    0.4246 O   0  0  0  0  0  0  0  0  0  0  0  0
    5.9454   -1.1679   -0.8977 C   0  0  0  0  0  0  0  0  0  0  0  0
    4.7607   -0.4297   -0.9458 C   0  0  0  0  0  0  0  0  0  0  0  0
    0.4169    0.7279   -0.5181 N   0  0  0  0  0  0  0  0  0  0  0  0
   -0.4854    0.5203   -1.5411 C   0  0  0  0  0  0  0  0  0  0  0  0
   -0.2348   -0.1612   -2.5305 O   0  0  0  0  0  0  0  0  0  0  0  0
   -1.7857    1.3350   -1.4238 C   0  0  2  0  0  0  0  0  0  0  0  0
   -1.5584    2.7367   -2.0061 C   0  0  0  0  0  0  0  0  0  0  0  0
   -2.3476    3.6564   -1.0851 C   0  0  0  0  0  0  0  0  0  0  0  0
   -2.1839    3.0029    0.2751 C   0  0  0  0  0  0  0  0  0  0  0  0
   -2.1722    1.5809   -0.0231 N   0  0  0  0  0  0  0  0  0  0  0  0
   -2.6918    0.6707    0.8801 C   0  0  0  0  0  0  0  0  0  0  0  0
   -2.9844    1.0179    2.0281 O   0  0  0  0  0  0  0  0  0  0  0  0
   -2.8862   -0.7933    0.4084 C   0  0  2  0  0  0  0  0  0  0  0  0
   -4.1107   -0.9426   -0.4945 C   0  0  0  0  0  0  0  0  0  0  0  0
   -5.0243   -1.9197    0.2289 C   0  0  0  0  0  0  0  0  0  0  0  0
   -4.5907   -1.8134    1.6737 C   0  0  0  0  0  0  0  0  0  0  0  0
   -3.1389   -1.6883    1.5645 N   0  0  0  0  0  0  0  0  0  0  0  0
    1.2591   -3.0233    1.0502 H   0  0  0  0  0  0  0  0  0  0  0  0
    1.8206   -0.6187   -1.3150 H   0  0  0  0  0  0  0  0  0  0  0  0
    2.5469    1.0662    1.1742 H   0  0  0  0  0  0  0  0  0  0  0  0
    2.9409    1.5467   -0.4571 H   0  0  0  0  0  0  0  0  0  0  0  0
    4.0610   -0.3342    2.3921 H   0  0  0  0  0  0  0  0  0  0  0  0
    6.1582   -1.6355    2.4619 H   0  0  0  0  0  0  0  0  0  0  0  0
    7.9365   -2.4595   -0.4706 H   0  0  0  0  0  0  0  0  0  0  0  0
    6.4649   -1.3983   -1.8223 H   0  0  0  0  0  0  0  0  0  0  0  0
    4.3820   -0.0998   -1.9113 H   0  0  0  0  0  0  0  0  0  0  0  0
    0.0139    1.0921    0.3430 H   0  0  0  0  0  0  0  0  0  0  0  0
   -2.5979    0.8077   -1.9306 H   0  0  0  0  0  0  0  0  0  0  0  0
   -1.8960    2.8056   -3.0451 H   0  0  0  0  0  0  0  0  0  0  0  0
   -0.4980    3.0174   -1.9881 H   0  0  0  0  0  0  0  0  0  0  0  0
   -1.9893    4.6892   -1.1041 H   0  0  0  0  0  0  0  0  0  0  0  0
   -3.4041    3.6530   -1.3793 H   0  0  0  0  0  0  0  0  0  0  0  0
   -2.9858    3.2740    0.9678 H   0  0  0  0  0  0  0  0  0  0  0  0
   -1.2183    3.2572    0.7256 H   0  0  0  0  0  0  0  0  0  0  0  0
   -1.9752   -1.1372   -0.0864 H   0  0  0  0  0  0  0  0  0  0  0  0
   -4.6302    0.0116   -0.6403 H   0  0  0  0  0  0  0  0  0  0  0  0
   -3.8418   -1.3353   -1.4810 H   0  0  0  0  0  0  0  0  0  0  0  0
   -6.0820   -1.6776    0.0894 H   0  0  0  0  0  0  0  0  0  0  0  0
   -4.8561   -2.9363   -0.1477 H   0  0  0  0  0  0  0  0  0  0  0  0
   -5.0250   -0.9262    2.1489 H   0  0  0  0  0  0  0  0  0  0  0  0
   -4.8750   -2.6945    2.2554 H   0  0  0  0  0  0  0  0  0  0  0  0
   -2.7707   -1.2391    2.4094 H   0  0  0  0  0  0  0  0  0  0  0  0
  1  2  2  0  0  0  0
  2  3  1  0  0  0  0
  2  4  1  0  0  0  0
  4  5  1  0  0  0  0
  5  6  1  0  0  0  0
  6  7  2  0  0  0  0
  7  8  1  0  0  0  0
  8  9  2  0  0  0  0
  9 10  1  0  0  0  0
  9 11  1  0  0  0  0
 11 12  2  0  0  0  0
  4 13  1  0  0  0  0
 13 14  1  0  0  0  0
 14 15  2  0  0  0  0
 14 16  1  0  0  0  0
 16 17  1  0  0  0  0
 17 18  1  0  0  0  0
 18 19  1  0  0  0  0
 19 20  1  0  0  0  0
 20 21  1  0  0  0  0
 21 22  2  0  0  0  0
 21 23  1  0  0  0  0
 23 24  1  0  0  0  0
 24 25  1  0  0  0  0
 25 26  1  0  0  0  0
 26 27  1  0  0  0  0
  6 12  1  0  0  0  0
 16 20  1  0  0  0  0
 23 27  1  0  0  0  0
  3 28  1  0  0  0  0
  4 29  1  0  0  0  0
  5 30  1  0  0  0  0
  5 31  1  0  0  0  0
  7 32  1  0  0  0  0
  8 33  1  0  0  0  0
 10 34  1  0  0  0  0
 11 35  1  0  0  0  0
 12 36  1  0  0  0  0
 13 37  1  0  0  0  0
 16 38  1  0  0  0  0
 17 39  1  0  0  0  0
 17 40  1  0  0  0  0
 18 41  1  0  0  0  0
 18 42  1  0  0  0  0
 19 43  1  0  0  0  0
 19 44  1  0  0  0  0
 23 45  1  0  0  0  0
 24 46  1  0  0  0  0
 24 47  1  0  0  0  0
 25 48  1  0  0  0  0
 25 49  1  0  0  0  0
 26 50  1  0  0  0  0
 26 51  1  0  0  0  0
 27 52  1  0  0  0  0
M  END
$$$$
PPY.sdf
  PyMOL2.5          3D                             0

 52 54  0  0  1  0  0  0  0  0999 V2000
    0.2586   -0.1668    2.0518 O   0  0  0  0  0  0  0  0  0  0  0  0
    1.3846   -0.0611    1.5799 C   0  0  0  0  0  0  0  0  0  0  0  0
    2.4307    0.0923    2.4136 O   0  0  0  0  0  0  0  0  0  0  0  0
    1.7540   -0.1799    0.0923 C   0  0  2  0  0  0  0  0  0  0  0  0
    3.0276    0.5828   -0.3170 C   0  0  0  0  0  0  0  0  0  0  0  0
    4.2669   -0.2891   -0.3004 C   0  0  0  0  0  0  0  0  0  0  0  0
    5.1879   -0.2060    0.7520 C   0  0  0  0  0  0  0  0  0  0  0  0
    6.3215   -1.0200    0.7650 C   0  0  0  0  0  0  0  0  0  0  0  0
    6.5386   -1.9164   -0.2738 C   0  0  0  0  0  0  0  0  0  0  0  0
    7.6590   -2.6919   -0.2211 O   0  0  0  0  0  0  0  0  0  0  0  0
    5.6389   -2.0139   -1.3298 C   0  0  0  0  0  0  0  0  0  0  0  0
    4.5039   -1.2000   -1.3418 C   0  0  0  0  0  0  0  0  0  0  0  0
    0.5777    0.2003   -0.6991 N   0  0  0  0  0  0  0  0  0  0  0  0
    0.1367    1.5101   -0.7632 C   0  0  0  0  0  0  0  0  0  0  0  0
    0.8146    2.4583   -0.3765 O   0  0  0  0  0  0  0  0  0  0  0  0
   -1.2976    1.6517   -1.3249 C   0  0  2  0  0  0  0  0  0  0  0  0
   -1.6792    3.1088   -1.5909 C   0  0  0  0  0  0  0  0  0  0  0  0
   -2.2630    3.5685   -0.2584 C   0  0  0  0  0  0  0  0  0  0  0  0
   -3.0108    2.3370    0.2292 C   0  0  0  0  0  0  0  0  0  0  0  0
   -2.2646    1.2128   -0.3140 N   0  0  0  0  0  0  0  0  0  0  0  0
   -2.5168   -0.1233   -0.0750 C   0  0  0  0  0  0  0  0  0  0  0  0
   -1.8908   -0.9966   -0.6861 O   0  0  0  0  0  0  0  0  0  0  0  0
   -3.5660   -0.4696    1.0101 C   0  0  2  0  0  0  0  0  0  0  0  0
   -3.6485   -1.9628    1.3017 C   0  0  0  0  0  0  0  0  0  0  0  0
   -4.6687   -2.5014    0.3065 C   0  0  0  0  0  0  0  0  0  0  0  0
   -5.3109   -1.2733   -0.3190 C   0  0  0  0  0  0  0  0  0  0  0  0
   -4.9388   -0.1449    0.5445 N   0  0  0  0  0  0  0  0  0  0  0  0
    2.0196    0.1273    3.3023 H   0  0  0  0  0  0  0  0  0  0  0  0
    1.8792   -1.2534   -0.0968 H   0  0  0  0  0  0  0  0  0  0  0  0
    3.1870    1.4628    0.3187 H   0  0  0  0  0  0  0  0  0  0  0  0
    2.9296    0.9719   -1.3397 H   0  0  0  0  0  0  0  0  0  0  0  0
    5.0279    0.4922    1.5708 H   0  0  0  0  0  0  0  0  0  0  0  0
    7.0327   -0.9530    1.5831 H   0  0  0  0  0  0  0  0  0  0  0  0
    7.6841   -3.2504   -1.0148 H   0  0  0  0  0  0  0  0  0  0  0  0
    5.8017   -2.7097   -2.1464 H   0  0  0  0  0  0  0  0  0  0  0  0
    3.8042   -1.2765   -2.1718 H   0  0  0  0  0  0  0  0  0  0  0  0
   -0.1697   -0.4971   -0.7458 H   0  0  0  0  0  0  0  0  0  0  0  0
   -1.3817    1.0448   -2.2336 H   0  0  0  0  0  0  0  0  0  0  0  0
   -0.8456    3.7353   -1.9210 H   0  0  0  0  0  0  0  0  0  0  0  0
   -2.4605    3.1506   -2.3600 H   0  0  0  0  0  0  0  0  0  0  0  0
   -2.9131    4.4422   -0.3574 H   0  0  0  0  0  0  0  0  0  0  0  0
   -1.4564    3.8213    0.4396 H   0  0  0  0  0  0  0  0  0  0  0  0
   -4.0225    2.3117   -0.1883 H   0  0  0  0  0  0  0  0  0  0  0  0
   -3.0665    2.2857    1.3195 H   0  0  0  0  0  0  0  0  0  0  0  0
   -3.3119    0.0814    1.9217 H   0  0  0  0  0  0  0  0  0  0  0  0
   -4.0233   -2.1233    2.3205 H   0  0  0  0  0  0  0  0  0  0  0  0
   -2.6891   -2.4830    1.2185 H   0  0  0  0  0  0  0  0  0  0  0  0
   -4.1864   -3.1183   -0.4593 H   0  0  0  0  0  0  0  0  0  0  0  0
   -5.4093   -3.1222    0.8224 H   0  0  0  0  0  0  0  0  0  0  0  0
   -4.9264   -1.1085   -1.3320 H   0  0  0  0  0  0  0  0  0  0  0  0
   -6.3983   -1.3734   -0.3929 H   0  0  0  0  0  0  0  0  0  0  0  0
   -5.5509   -0.1638    1.3616 H   0  0  0  0  0  0  0  0  0  0  0  0
  1  2  2  0  0  0  0
  2  3  1  0  0  0  0
  2  4  1  0  0  0  0
  4  5  1  0  0  0  0
  5  6  1  0  0  0  0
  6  7  2  0  0  0  0
  7  8  1  0  0  0  0
  8  9  2  0  0  0  0
  9 10  1  0  0  0  0
  9 11  1  0  0  0  0
 11 12  2  0  0  0  0
  4 13  1  0  0  0  0
 13 14  1  0  0  0  0
 14 15  2  0  0  0  0
 14 16  1  0  0  0  0
 16 17  1  0  0  0  0
 17 18  1  0  0  0  0
 18 19  1  0  0  0  0
 19 20  1  0  0  0  0
 20 21  1  0  0  0  0
 21 22  2  0  0  0  0
 21 23  1  0  0  0  0
 23 24  1  0  0  0  0
 24 25  1  0  0  0  0
 25 26  1  0  0  0  0
 26 27  1  0  0  0  0
  6 12  1  0  0  0  0
 16 20  1  0  0  0  0
 23 27  1  0  0  0  0
  3 28  1  0  0  0  0
  4 29  1  0  0  0  0
  5 30  1  0  0  0  0
  5 31  1  0  0  0  0
  7 32  1  0  0  0  0
  8 33  1  0  0  0  0
 10 34  1  0  0  0  0
 11 35  1  0  0  0  0
 12 36  1  0  0  0  0
 13 37  1  0  0  0  0
 16 38  1  0  0  0  0
 17 39  1  0  0  0  0
 17 40  1  0  0  0  0
 18 41  1  0  0  0  0
 18 42  1  0  0  0  0
 19 43  1  0  0  0  0
 19 44  1  0  0  0  0
 23 45  1  0  0  0  0
 24 46  1  0  0  0  0
 24 47  1  0  0  0  0
 25 48  1  0  0  0  0
 25 49  1  0  0  0  0
 26 50  1  0  0  0  0
 26 51  1  0  0  0  0
 27 52  1  0  0  0  0
M  END
$$$$
PPY.sdf
  PyMOL2.5          3D                             0

 52 54  0  0  1  0  0  0  0  0999 V2000
    1.1859    1.5871    3.2338 O   0  0  0  0  0  0  0  0  0  0  0  0
    1.5639    0.4499    2.9892 C   0  0  0  0  0  0  0  0  0  0  0  0
    1.6501   -0.4708    3.9688 O   0  0  0  0  0  0  0  0  0  0  0  0
    2.0402   -0.0583    1.6333 C   0  0  2  0  0  0  0  0  0  0  0  0
    3.5375    0.2503    1.5082 C   0  0  0  0  0  0  0  0  0  0  0  0
    4.1462   -0.2233    0.2075 C   0  0  0  0  0  0  0  0  0  0  0  0
    4.2256   -1.5925   -0.0883 C   0  0  0  0  0  0  0  0  0  0  0  0
    4.7802   -2.0282   -1.2941 C   0  0  0  0  0  0  0  0  0  0  0  0
    5.2609   -1.0928   -2.2036 C   0  0  0  0  0  0  0  0  0  0  0  0
    5.8082   -1.4739   -3.3929 O   0  0  0  0  0  0  0  0  0  0  0  0
    5.1976    0.2666   -1.9260 C   0  0  0  0  0  0  0  0  0  0  0  0
    4.6417    0.7023   -0.7222 C   0  0  0  0  0  0  0  0  0  0  0  0
    1.2509    0.6281    0.6036 N   0  0  0  0  0  0  0  0  0  0  0  0
    0.1156    0.0307    0.0919 C   0  0  0  0  0  0  0  0  0  0  0  0
   -0.1632   -1.1479    0.3138 O   0  0  0  0  0  0  0  0  0  0  0  0
   -0.6995    0.8957   -0.8968 C   0  0  2  0  0  0  0  0  0  0  0  0
   -0.6358    2.4136   -0.8087 C   0  0  0  0  0  0  0  0  0  0  0  0
   -1.8298    2.8655   -1.6618 C   0  0  0  0  0  0  0  0  0  0  0  0
   -2.6949    1.6130   -1.8650 C   0  0  0  0  0  0  0  0  0  0  0  0
   -2.1378    0.6259   -0.9537 N   0  0  0  0  0  0  0  0  0  0  0  0
   -2.8122    0.5046    0.2828 C   0  0  0  0  0  0  0  0  0  0  0  0
   -2.3017    0.8400    1.3498 O   0  0  0  0  0  0  0  0  0  0  0  0
   -4.2565   -0.0548    0.1680 C   0  0  2  0  0  0  0  0  0  0  0  0
   -4.7854   -0.6305    1.4817 C   0  0  0  0  0  0  0  0  0  0  0  0
   -4.7835   -2.1427    1.2918 C   0  0  0  0  0  0  0  0  0  0  0  0
   -3.9873   -2.3713    0.0245 C   0  0  0  0  0  0  0  0  0  0  0  0
   -4.3003   -1.1917   -0.7840 N   0  0  0  0  0  0  0  0  0  0  0  0
    1.2649   -0.0241    4.7522 H   0  0  0  0  0  0  0  0  0  0  0  0
    1.8513   -1.1360    1.5786 H   0  0  0  0  0  0  0  0  0  0  0  0
    3.7044    1.3304    1.6198 H   0  0  0  0  0  0  0  0  0  0  0  0
    4.0889   -0.2179    2.3346 H   0  0  0  0  0  0  0  0  0  0  0  0
    3.8508   -2.3318    0.6167 H   0  0  0  0  0  0  0  0  0  0  0  0
    4.8251   -3.0923   -1.5025 H   0  0  0  0  0  0  0  0  0  0  0  0
    5.7777   -2.4430   -3.4483 H   0  0  0  0  0  0  0  0  0  0  0  0
    5.5799    0.9854   -2.6449 H   0  0  0  0  0  0  0  0  0  0  0  0
    4.5983    1.7696   -0.5191 H   0  0  0  0  0  0  0  0  0  0  0  0
    1.2360    1.6377    0.6819 H   0  0  0  0  0  0  0  0  0  0  0  0
   -0.3084    0.6025   -1.8836 H   0  0  0  0  0  0  0  0  0  0  0  0
    0.3101    2.8170   -1.1836 H   0  0  0  0  0  0  0  0  0  0  0  0
   -0.7596    2.7620    0.2233 H   0  0  0  0  0  0  0  0  0  0  0  0
   -2.3885    3.6542   -1.1464 H   0  0  0  0  0  0  0  0  0  0  0  0
   -1.5057    3.2679   -2.6275 H   0  0  0  0  0  0  0  0  0  0  0  0
   -3.7519    1.8247   -1.6895 H   0  0  0  0  0  0  0  0  0  0  0  0
   -2.5752    1.2294   -2.8843 H   0  0  0  0  0  0  0  0  0  0  0  0
   -4.9065    0.7568   -0.1732 H   0  0  0  0  0  0  0  0  0  0  0  0
   -5.8100   -0.2900    1.6722 H   0  0  0  0  0  0  0  0  0  0  0  0
   -4.1815   -0.3548    2.3517 H   0  0  0  0  0  0  0  0  0  0  0  0
   -4.3489   -2.6638    2.1504 H   0  0  0  0  0  0  0  0  0  0  0  0
   -5.8128   -2.5007    1.1672 H   0  0  0  0  0  0  0  0  0  0  0  0
   -4.2790   -3.2947   -0.4835 H   0  0  0  0  0  0  0  0  0  0  0  0
   -2.9137   -2.4200    0.2413 H   0  0  0  0  0  0  0  0  0  0  0  0
   -3.5623   -1.0628   -1.4805 H   0  0  0  0  0  0  0  0  0  0  0  0
  1  2  2  0  0  0  0
  2  3  1  0  0  0  0
  2  4  1  0  0  0  0
  4  5  1  0  0  0  0
  5  6  1  0  0  0  0
  6  7  2  0  0  0  0
  7  8  1  0  0  0  0
  8  9  2  0  0  0  0
  9 10  1  0  0  0  0
  9 11  1  0  0  0  0
 11 12  2  0  0  0  0
  4 13  1  0  0  0  0
 13 14  1  0  0  0  0
 14 15  2  0  0  0  0
 14 16  1  0  0  0  0
 16 17  1  0  0  0  0
 17 18  1  0  0  0  0
 18 19  1  0  0  0  0
 19 20  1  0  0  0  0
 20 21  1  0  0  0  0
 21 22  2  0  0  0  0
 21 23  1  0  0  0  0
 23 24  1  0  0  0  0
 24 25  1  0  0  0  0
 25 26  1  0  0  0  0
 26 27  1  0  0  0  0
  6 12  1  0  0  0  0
 16 20  1  0  0  0  0
 23 27  1  0  0  0  0
  3 28  1  0  0  0  0
  4 29  1  0  0  0  0
  5 30  1  0  0  0  0
  5 31  1  0  0  0  0
  7 32  1  0  0  0  0
  8 33  1  0  0  0  0
 10 34  1  0  0  0  0
 11 35  1  0  0  0  0
 12 36  1  0  0  0  0
 13 37  1  0  0  0  0
 16 38  1  0  0  0  0
 17 39  1  0  0  0  0
 17 40  1  0  0  0  0
 18 41  1  0  0  0  0
 18 42  1  0  0  0  0
 19 43  1  0  0  0  0
 19 44  1  0  0  0  0
 23 45  1  0  0  0  0
 24 46  1  0  0  0  0
 24 47  1  0  0  0  0
 25 48  1  0  0  0  0
 25 49  1  0  0  0  0
 26 50  1  0  0  0  0
 26 51  1  0  0  0  0
 27 52  1  0  0  0  0
M  END
$$$$
PPY.sdf
  PyMOL2.5          3D                             0

 52 54  0  0  1  0  0  0  0  0999 V2000
    2.4106    2.8131   -0.4174 O   0  0  0  0  0  0  0  0  0  0  0  0
    2.6003    1.7708    0.1963 C   0  0  0  0  0  0  0  0  0  0  0  0
    3.4763    1.7187    1.2155 O   0  0  0  0  0  0  0  0  0  0  0  0
    1.9178    0.4373   -0.0995 C   0  0  2  0  0  0  0  0  0  0  0  0
    2.6534   -0.2961   -1.2269 C   0  0  0  0  0  0  0  0  0  0  0  0
    4.0140   -0.8177   -0.8326 C   0  0  0  0  0  0  0  0  0  0  0  0
    4.1314   -1.9041    0.0473 C   0  0  0  0  0  0  0  0  0  0  0  0
    5.3894   -2.3805    0.4230 C   0  0  0  0  0  0  0  0  0  0  0  0
    6.5313   -1.7704   -0.0842 C   0  0  0  0  0  0  0  0  0  0  0  0
    7.7789   -2.2019    0.2566 O   0  0  0  0  0  0  0  0  0  0  0  0
    6.4347   -0.6958   -0.9591 C   0  0  0  0  0  0  0  0  0  0  0  0
    5.1781   -0.2184   -1.3341 C   0  0  0  0  0  0  0  0  0  0  0  0
    0.5423    0.7564   -0.5187 N   0  0  0  0  0  0  0  0  0  0  0  0
   -0.4687    0.8388    0.4219 C   0  0  0  0  0  0  0  0  0  0  0  0
   -0.3192    0.4838    1.5864 O   0  0  0  0  0  0  0  0  0  0  0  0
   -1.7895    1.4120   -0.1332 C   0  0  2  0  0  0  0  0  0  0  0  0
   -1.6165    2.9238   -0.3612 C   0  0  0  0  0  0  0  0  0  0  0  0
   -2.9286    3.5338    0.1142 C   0  0  0  0  0  0  0  0  0  0  0  0
   -3.3410    2.6183    1.2515 C   0  0  0  0  0  0  0  0  0  0  0  0
   -2.9144    1.3086    0.8013 N   0  0  0  0  0  0  0  0  0  0  0  0
   -3.5782    0.1705    1.2127 C   0  0  0  0  0  0  0  0  0  0  0  0
   -4.4976    0.2300    2.0364 O   0  0  0  0  0  0  0  0  0  0  0  0
   -3.1524   -1.1880    0.5989 C   0  0  2  0  0  0  0  0  0  0  0  0
   -3.5720   -1.3173   -0.8663 C   0  0  0  0  0  0  0  0  0  0  0  0
   -4.4870   -2.5305   -0.9173 C   0  0  0  0  0  0  0  0  0  0  0  0
   -5.0089   -2.6402    0.4970 C   0  0  0  0  0  0  0  0  0  0  0  0
   -3.8320   -2.3111    1.2973 N   0  0  0  0  0  0  0  0  0  0  0  0
    3.8359    2.6258    1.2978 H   0  0  0  0  0  0  0  0  0  0  0  0
    1.8809   -0.1596    0.8183 H   0  0  0  0  0  0  0  0  0  0  0  0
    2.7495    0.3598   -2.1029 H   0  0  0  0  0  0  0  0  0  0  0  0
    2.0502   -1.1483   -1.5687 H   0  0  0  0  0  0  0  0  0  0  0  0
    3.2425   -2.3873    0.4488 H   0  0  0  0  0  0  0  0  0  0  0  0
    5.4558   -3.2206    1.1071 H   0  0  0  0  0  0  0  0  0  0  0  0
    7.6896   -2.9449    0.8757 H   0  0  0  0  0  0  0  0  0  0  0  0
    7.3361   -0.2306   -1.3478 H   0  0  0  0  0  0  0  0  0  0  0  0
    5.1196    0.6247   -2.0188 H   0  0  0  0  0  0  0  0  0  0  0  0
    0.4689    1.3713   -1.3223 H   0  0  0  0  0  0  0  0  0  0  0  0
   -2.0496    0.8981   -1.0626 H   0  0  0  0  0  0  0  0  0  0  0  0
   -0.7879    3.3280    0.2338 H   0  0  0  0  0  0  0  0  0  0  0  0
   -1.4118    3.1588   -1.4106 H   0  0  0  0  0  0  0  0  0  0  0  0
   -3.6690    3.4871   -0.6937 H   0  0  0  0  0  0  0  0  0  0  0  0
   -2.8259    4.5768    0.4255 H   0  0  0  0  0  0  0  0  0  0  0  0
   -2.7938    2.8514    2.1717 H   0  0  0  0  0  0  0  0  0  0  0  0
   -4.4154    2.6567    1.4526 H   0  0  0  0  0  0  0  0  0  0  0  0
   -2.0754   -1.3189    0.7251 H   0  0  0  0  0  0  0  0  0  0  0  0
   -4.1170   -0.4324   -1.2152 H   0  0  0  0  0  0  0  0  0  0  0  0
   -2.7090   -1.4653   -1.5242 H   0  0  0  0  0  0  0  0  0  0  0  0
   -5.2883   -2.4137   -1.6529 H   0  0  0  0  0  0  0  0  0  0  0  0
   -3.9086   -3.4240   -1.1835 H   0  0  0  0  0  0  0  0  0  0  0  0
   -5.3808   -3.6432    0.7231 H   0  0  0  0  0  0  0  0  0  0  0  0
   -5.8159   -1.9197    0.6742 H   0  0  0  0  0  0  0  0  0  0  0  0
   -4.1334   -1.9740    2.2180 H   0  0  0  0  0  0  0  0  0  0  0  0
  1  2  2  0  0  0  0
  2  3  1  0  0  0  0
  2  4  1  0  0  0  0
  4  5  1  0  0  0  0
  5  6  1  0  0  0  0
  6  7  2  0  0  0  0
  7  8  1  0  0  0  0
  8  9  2  0  0  0  0
  9 10  1  0  0  0  0
  9 11  1  0  0  0  0
 11 12  2  0  0  0  0
  4 13  1  0  0  0  0
 13 14  1  0  0  0  0
 14 15  2  0  0  0  0
 14 16  1  0  0  0  0
 16 17  1  0  0  0  0
 17 18  1  0  0  0  0
 18 19  1  0  0  0  0
 19 20  1  0  0  0  0
 20 21  1  0  0  0  0
 21 22  2  0  0  0  0
 21 23  1  0  0  0  0
 23 24  1  0  0  0  0
 24 25  1  0  0  0  0
 25 26  1  0  0  0  0
 26 27  1  0  0  0  0
  6 12  1  0  0  0  0
 16 20  1  0  0  0  0
 23 27  1  0  0  0  0
  3 28  1  0  0  0  0
  4 29  1  0  0  0  0
  5 30  1  0  0  0  0
  5 31  1  0  0  0  0
  7 32  1  0  0  0  0
  8 33  1  0  0  0  0
 10 34  1  0  0  0  0
 11 35  1  0  0  0  0
 12 36  1  0  0  0  0
 13 37  1  0  0  0  0
 16 38  1  0  0  0  0
 17 39  1  0  0  0  0
 17 40  1  0  0  0  0
 18 41  1  0  0  0  0
 18 42  1  0  0  0  0
 19 43  1  0  0  0  0
 19 44  1  0  0  0  0
 23 45  1  0  0  0  0
 24 46  1  0  0  0  0
 24 47  1  0  0  0  0
 25 48  1  0  0  0  0
 25 49  1  0  0  0  0
 26 50  1  0  0  0  0
 26 51  1  0  0  0  0
 27 52  1  0  0  0  0
M  END
$$$$
PPY.sdf
  PyMOL2.5          3D                             0

 52 54  0  0  1  0  0  0  0  0999 V2000
    2.0495    4.1227    0.1096 O   0  0  0  0  0  0  0  0  0  0  0  0
    2.4065    3.2590    0.8986 C   0  0  0  0  0  0  0  0  0  0  0  0
    2.9482    3.6009    2.0849 O   0  0  0  0  0  0  0  0  0  0  0  0
    2.3567    1.7492    0.6725 C   0  0  2  0  0  0  0  0  0  0  0  0
    3.7471    1.2720    0.2291 C   0  0  0  0  0  0  0  0  0  0  0  0
    3.9210   -0.2037   -0.0716 C   0  0  0  0  0  0  0  0  0  0  0  0
    5.0753   -0.6086   -0.7644 C   0  0  0  0  0  0  0  0  0  0  0  0
    5.2957   -1.9538   -1.0661 C   0  0  0  0  0  0  0  0  0  0  0  0
    4.3663   -2.9064   -0.6740 C   0  0  0  0  0  0  0  0  0  0  0  0
    4.6123   -4.2083   -0.9947 O   0  0  0  0  0  0  0  0  0  0  0  0
    3.2239   -2.5357    0.0243 C   0  0  0  0  0  0  0  0  0  0  0  0
    3.0074   -1.1888    0.3317 C   0  0  0  0  0  0  0  0  0  0  0  0
    1.3342    1.4823   -0.3431 N   0  0  0  0  0  0  0  0  0  0  0  0
    0.0179    1.2774    0.0191 C   0  0  0  0  0  0  0  0  0  0  0  0
   -0.3459    1.2470    1.1930 O   0  0  0  0  0  0  0  0  0  0  0  0
   -0.9469    1.1644   -1.1775 C   0  0  2  0  0  0  0  0  0  0  0  0
   -1.3349    2.5698   -1.6534 C   0  0  0  0  0  0  0  0  0  0  0  0
   -2.8246    2.4613   -1.9582 C   0  0  0  0  0  0  0  0  0  0  0  0
   -3.3201    1.4599   -0.9281 C   0  0  0  0  0  0  0  0  0  0  0  0
   -2.2087    0.5387   -0.7930 N   0  0  0  0  0  0  0  0  0  0  0  0
   -2.2563   -0.8034   -0.4849 C   0  0  0  0  0  0  0  0  0  0  0  0
   -1.2604   -1.5245   -0.6071 O   0  0  0  0  0  0  0  0  0  0  0  0
   -3.6082   -1.3764    0.0019 C   0  0  2  0  0  0  0  0  0  0  0  0
   -4.0603   -0.7665    1.3292 C   0  0  0  0  0  0  0  0  0  0  0  0
   -4.1989   -1.9442    2.2799 C   0  0  0  0  0  0  0  0  0  0  0  0
   -3.2665   -2.9797    1.6936 C   0  0  0  0  0  0  0  0  0  0  0  0
   -3.4889   -2.8369    0.2552 N   0  0  0  0  0  0  0  0  0  0  0  0
    2.8914    4.5794    2.1077 H   0  0  0  0  0  0  0  0  0  0  0  0
    2.0556    1.2772    1.6148 H   0  0  0  0  0  0  0  0  0  0  0  0
    4.0335    1.8332   -0.6719 H   0  0  0  0  0  0  0  0  0  0  0  0
    4.4781    1.5352    1.0053 H   0  0  0  0  0  0  0  0  0  0  0  0
    5.8147    0.1255   -1.0779 H   0  0  0  0  0  0  0  0  0  0  0  0
    6.1881   -2.2559   -1.6063 H   0  0  0  0  0  0  0  0  0  0  0  0
    3.8643   -4.7446   -0.6838 H   0  0  0  0  0  0  0  0  0  0  0  0
    2.4888   -3.2711    0.3372 H   0  0  0  0  0  0  0  0  0  0  0  0
    2.1035   -0.9357    0.8818 H   0  0  0  0  0  0  0  0  0  0  0  0
    1.5299    1.7829   -1.2900 H   0  0  0  0  0  0  0  0  0  0  0  0
   -0.4877    0.5722   -1.9774 H   0  0  0  0  0  0  0  0  0  0  0  0
   -1.1726    3.3194   -0.8689 H   0  0  0  0  0  0  0  0  0  0  0  0
   -0.7566    2.8806   -2.5292 H   0  0  0  0  0  0  0  0  0  0  0  0
   -3.3432    3.4220   -1.8980 H   0  0  0  0  0  0  0  0  0  0  0  0
   -2.9631    2.0588   -2.9691 H   0  0  0  0  0  0  0  0  0  0  0  0
   -4.2382    0.9594   -1.2429 H   0  0  0  0  0  0  0  0  0  0  0  0
   -3.4802    1.9391    0.0435 H   0  0  0  0  0  0  0  0  0  0  0  0
   -4.3506   -1.2316   -0.7890 H   0  0  0  0  0  0  0  0  0  0  0  0
   -5.0152   -0.2396    1.2305 H   0  0  0  0  0  0  0  0  0  0  0  0
   -3.3235   -0.0599    1.7284 H   0  0  0  0  0  0  0  0  0  0  0  0
   -3.9382   -1.6786    3.3086 H   0  0  0  0  0  0  0  0  0  0  0  0
   -5.2329   -2.3107    2.2742 H   0  0  0  0  0  0  0  0  0  0  0  0
   -2.2237   -2.7578    1.9489 H   0  0  0  0  0  0  0  0  0  0  0  0
   -3.5030   -3.9904    2.0374 H   0  0  0  0  0  0  0  0  0  0  0  0
   -2.6609   -3.1768   -0.2458 H   0  0  0  0  0  0  0  0  0  0  0  0
  1  2  2  0  0  0  0
  2  3  1  0  0  0  0
  2  4  1  0  0  0  0
  4  5  1  0  0  0  0
  5  6  1  0  0  0  0
  6  7  2  0  0  0  0
  7  8  1  0  0  0  0
  8  9  2  0  0  0  0
  9 10  1  0  0  0  0
  9 11  1  0  0  0  0
 11 12  2  0  0  0  0
  4 13  1  0  0  0  0
 13 14  1  0  0  0  0
 14 15  2  0  0  0  0
 14 16  1  0  0  0  0
 16 17  1  0  0  0  0
 17 18  1  0  0  0  0
 18 19  1  0  0  0  0
 19 20  1  0  0  0  0
 20 21  1  0  0  0  0
 21 22  2  0  0  0  0
 21 23  1  0  0  0  0
 23 24  1  0  0  0  0
 24 25  1  0  0  0  0
 25 26  1  0  0  0  0
 26 27  1  0  0  0  0
  6 12  1  0  0  0  0
 16 20  1  0  0  0  0
 23 27  1  0  0  0  0
  3 28  1  0  0  0  0
  4 29  1  0  0  0  0
  5 30  1  0  0  0  0
  5 31  1  0  0  0  0
  7 32  1  0  0  0  0
  8 33  1  0  0  0  0
 10 34  1  0  0  0  0
 11 35  1  0  0  0  0
 12 36  1  0  0  0  0
 13 37  1  0  0  0  0
 16 38  1  0  0  0  0
 17 39  1  0  0  0  0
 17 40  1  0  0  0  0
 18 41  1  0  0  0  0
 18 42  1  0  0  0  0
 19 43  1  0  0  0  0
 19 44  1  0  0  0  0
 23 45  1  0  0  0  0
 24 46  1  0  0  0  0
 24 47  1  0  0  0  0
 25 48  1  0  0  0  0
 25 49  1  0  0  0  0
 26 50  1  0  0  0  0
 26 51  1  0  0  0  0
 27 52  1  0  0  0  0
M  END
$$$$
PPY.sdf
  PyMOL2.5          3D                             0

 52 54  0  0  1  0  0  0  0  0999 V2000
    2.3522    0.4921   -3.1068 O   0  0  0  0  0  0  0  0  0  0  0  0
    2.6544    0.7363   -1.9457 C   0  0  0  0  0  0  0  0  0  0  0  0
    3.4701    1.7659   -1.6523 O   0  0  0  0  0  0  0  0  0  0  0  0
    2.1959   -0.0548   -0.7231 C   0  0  2  0  0  0  0  0  0  0  0  0
    3.0712   -1.3000   -0.5403 C   0  0  0  0  0  0  0  0  0  0  0  0
    4.4874   -0.9978   -0.1126 C   0  0  0  0  0  0  0  0  0  0  0  0
    5.5521   -1.1484   -1.0134 C   0  0  0  0  0  0  0  0  0  0  0  0
    6.8612   -0.8621   -0.6186 C   0  0  0  0  0  0  0  0  0  0  0  0
    7.1046   -0.4243    0.6788 C   0  0  0  0  0  0  0  0  0  0  0  0
    8.3666   -0.1343    1.1059 O   0  0  0  0  0  0  0  0  0  0  0  0
    6.0628   -0.2694    1.5843 C   0  0  0  0  0  0  0  0  0  0  0  0
    4.7550   -0.5560    1.1909 C   0  0  0  0  0  0  0  0  0  0  0  0
    0.8036   -0.4500   -0.9761 N   0  0  0  0  0  0  0  0  0  0  0  0
   -0.2416    0.3719   -0.5954 C   0  0  0  0  0  0  0  0  0  0  0  0
   -0.0731    1.3934    0.0668 O   0  0  0  0  0  0  0  0  0  0  0  0
   -1.6094   -0.0629   -1.1619 C   0  0  2  0  0  0  0  0  0  0  0  0
   -1.7688    0.5057   -2.5782 C   0  0  0  0  0  0  0  0  0  0  0  0
   -3.2119    0.9946   -2.6263 C   0  0  0  0  0  0  0  0  0  0  0  0
   -3.4777    1.4477   -1.2003 C   0  0  0  0  0  0  0  0  0  0  0  0
   -2.7161    0.5066   -0.4036 N   0  0  0  0  0  0  0  0  0  0  0  0
   -2.9991    0.0526    0.8681 C   0  0  0  0  0  0  0  0  0  0  0  0
   -2.3528   -0.8719    1.3695 O   0  0  0  0  0  0  0  0  0  0  0  0
   -4.1521    0.7527    1.6269 C   0  0  2  0  0  0  0  0  0  0  0  0
   -4.1631    0.4241    3.1151 C   0  0  0  0  0  0  0  0  0  0  0  0
   -5.0320   -0.8216    3.2409 C   0  0  0  0  0  0  0  0  0  0  0  0
   -5.6465   -1.0266    1.8659 C   0  0  0  0  0  0  0  0  0  0  0  0
   -5.4719    0.2503    1.1614 N   0  0  0  0  0  0  0  0  0  0  0  0
    3.6710    2.1867   -2.5127 H   0  0  0  0  0  0  0  0  0  0  0  0
    2.2256    0.5954    0.1582 H   0  0  0  0  0  0  0  0  0  0  0  0
    2.6222   -1.9597    0.2148 H   0  0  0  0  0  0  0  0  0  0  0  0
    3.0852   -1.8902   -1.4668 H   0  0  0  0  0  0  0  0  0  0  0  0
    5.3706   -1.4903   -2.0302 H   0  0  0  0  0  0  0  0  0  0  0  0
    7.6699   -0.9862   -1.3315 H   0  0  0  0  0  0  0  0  0  0  0  0
    8.9845   -0.2917    0.3739 H   0  0  0  0  0  0  0  0  0  0  0  0
    6.2670    0.0738    2.5945 H   0  0  0  0  0  0  0  0  0  0  0  0
    3.9481   -0.4315    1.9104 H   0  0  0  0  0  0  0  0  0  0  0  0
    0.6454   -1.0570   -1.7720 H   0  0  0  0  0  0  0  0  0  0  0  0
   -1.6941   -1.1556   -1.1470 H   0  0  0  0  0  0  0  0  0  0  0  0
   -1.5638   -0.2462   -3.3468 H   0  0  0  0  0  0  0  0  0  0  0  0
   -1.0883    1.3483   -2.7537 H   0  0  0  0  0  0  0  0  0  0  0  0
   -3.8730    0.1577   -2.8823 H   0  0  0  0  0  0  0  0  0  0  0  0
   -3.3679    1.7907   -3.3593 H   0  0  0  0  0  0  0  0  0  0  0  0
   -3.0669    2.4466   -1.0178 H   0  0  0  0  0  0  0  0  0  0  0  0
   -4.5415    1.4482   -0.9607 H   0  0  0  0  0  0  0  0  0  0  0  0
   -4.0621    1.8337    1.4744 H   0  0  0  0  0  0  0  0  0  0  0  0
   -4.6302    1.2439    3.6753 H   0  0  0  0  0  0  0  0  0  0  0  0
   -3.1655    0.2638    3.5363 H   0  0  0  0  0  0  0  0  0  0  0  0
   -4.4376   -1.6928    3.5357 H   0  0  0  0  0  0  0  0  0  0  0  0
   -5.8036   -0.6669    4.0032 H   0  0  0  0  0  0  0  0  0  0  0  0
   -6.7035   -1.3036    1.9280 H   0  0  0  0  0  0  0  0  0  0  0  0
   -5.1290   -1.8261    1.3234 H   0  0  0  0  0  0  0  0  0  0  0  0
   -6.1832    0.8951    1.5080 H   0  0  0  0  0  0  0  0  0  0  0  0
  1  2  2  0  0  0  0
  2  3  1  0  0  0  0
  2  4  1  0  0  0  0
  4  5  1  0  0  0  0
  5  6  1  0  0  0  0
  6  7  2  0  0  0  0
  7  8  1  0  0  0  0
  8  9  2  0  0  0  0
  9 10  1  0  0  0  0
  9 11  1  0  0  0  0
 11 12  2  0  0  0  0
  4 13  1  0  0  0  0
 13 14  1  0  0  0  0
 14 15  2  0  0  0  0
 14 16  1  0  0  0  0
 16 17  1  0  0  0  0
 17 18  1  0  0  0  0
 18 19  1  0  0  0  0
 19 20  1  0  0  0  0
 20 21  1  0  0  0  0
 21 22  2  0  0  0  0
 21 23  1  0  0  0  0
 23 24  1  0  0  0  0
 24 25  1  0  0  0  0
 25 26  1  0  0  0  0
 26 27  1  0  0  0  0
  6 12  1  0  0  0  0
 16 20  1  0  0  0  0
 23 27  1  0  0  0  0
  3 28  1  0  0  0  0
  4 29  1  0  0  0  0
  5 30  1  0  0  0  0
  5 31  1  0  0  0  0
  7 32  1  0  0  0  0
  8 33  1  0  0  0  0
 10 34  1  0  0  0  0
 11 35  1  0  0  0  0
 12 36  1  0  0  0  0
 13 37  1  0  0  0  0
 16 38  1  0  0  0  0
 17 39  1  0  0  0  0
 17 40  1  0  0  0  0
 18 41  1  0  0  0  0
 18 42  1  0  0  0  0
 19 43  1  0  0  0  0
 19 44  1  0  0  0  0
 23 45  1  0  0  0  0
 24 46  1  0  0  0  0
 24 47  1  0  0  0  0
 25 48  1  0  0  0  0
 25 49  1  0  0  0  0
 26 50  1  0  0  0  0
 26 51  1  0  0  0  0
 27 52  1  0  0  0  0
M  END
$$$$
PPY.sdf
  PyMOL2.5          3D                             0

 52 54  0  0  1  0  0  0  0  0999 V2000
    2.5162    0.0854   -4.1103 O   0  0  0  0  0  0  0  0  0  0  0  0
    3.0903    0.5913   -3.1574 C   0  0  0  0  0  0  0  0  0  0  0  0
    4.3214    1.1239   -3.3180 O   0  0  0  0  0  0  0  0  0  0  0  0
    2.5968    0.6647   -1.7122 C   0  0  2  0  0  0  0  0  0  0  0  0
    3.2343   -0.4944   -0.9373 C   0  0  0  0  0  0  0  0  0  0  0  0
    2.8931   -0.5007    0.5339 C   0  0  0  0  0  0  0  0  0  0  0  0
    1.9485   -1.4067    1.0363 C   0  0  0  0  0  0  0  0  0  0  0  0
    1.6355   -1.4233    2.3960 C   0  0  0  0  0  0  0  0  0  0  0  0
    2.2578   -0.5234    3.2534 C   0  0  0  0  0  0  0  0  0  0  0  0
    1.9749   -0.5044    4.5873 O   0  0  0  0  0  0  0  0  0  0  0  0
    3.1892    0.3883    2.7727 C   0  0  0  0  0  0  0  0  0  0  0  0
    3.5092    0.4000    1.4140 C   0  0  0  0  0  0  0  0  0  0  0  0
    1.1385    0.5972   -1.7009 N   0  0  0  0  0  0  0  0  0  0  0  0
    0.3652    1.6800   -2.0466 C   0  0  0  0  0  0  0  0  0  0  0  0
    0.8637    2.7697   -2.3249 O   0  0  0  0  0  0  0  0  0  0  0  0
   -1.1439    1.3749   -2.2078 C   0  0  2  0  0  0  0  0  0  0  0  0
   -1.9405    2.6738   -2.3989 C   0  0  0  0  0  0  0  0  0  0  0  0
   -3.3007    2.3503   -1.8058 C   0  0  0  0  0  0  0  0  0  0  0  0
   -2.9422    1.4871   -0.6087 C   0  0  0  0  0  0  0  0  0  0  0  0
   -1.7851    0.7225   -1.0489 N   0  0  0  0  0  0  0  0  0  0  0  0
   -1.5444   -0.6056   -0.7401 C   0  0  0  0  0  0  0  0  0  0  0  0
   -0.7680   -1.2765   -1.4299 O   0  0  0  0  0  0  0  0  0  0  0  0
   -2.3094   -1.2187    0.4565 C   0  0  2  0  0  0  0  0  0  0  0  0
   -2.1845   -0.4618    1.7728 C   0  0  0  0  0  0  0  0  0  0  0  0
   -2.2752   -1.5306    2.8599 C   0  0  0  0  0  0  0  0  0  0  0  0
   -2.3304   -2.8553    2.1179 C   0  0  0  0  0  0  0  0  0  0  0  0
   -1.7510   -2.5389    0.8226 N   0  0  0  0  0  0  0  0  0  0  0  0
    4.4862    1.0384   -4.2806 H   0  0  0  0  0  0  0  0  0  0  0  0
    2.8907    1.6371   -1.2987 H   0  0  0  0  0  0  0  0  0  0  0  0
    2.9362   -1.4529   -1.3846 H   0  0  0  0  0  0  0  0  0  0  0  0
    4.3278   -0.4603   -1.0355 H   0  0  0  0  0  0  0  0  0  0  0  0
    1.4409   -2.1040    0.3711 H   0  0  0  0  0  0  0  0  0  0  0  0
    0.9033   -2.1387    2.7552 H   0  0  0  0  0  0  0  0  0  0  0  0
    1.3349   -1.2114    4.7701 H   0  0  0  0  0  0  0  0  0  0  0  0
    3.6668    1.0872    3.4531 H   0  0  0  0  0  0  0  0  0  0  0  0
    4.2419    1.1158    1.0488 H   0  0  0  0  0  0  0  0  0  0  0  0
    0.6926   -0.3210   -1.7591 H   0  0  0  0  0  0  0  0  0  0  0  0
   -1.2688    0.7207   -3.0798 H   0  0  0  0  0  0  0  0  0  0  0  0
   -2.0014    2.9697   -3.4508 H   0  0  0  0  0  0  0  0  0  0  0  0
   -1.4948    3.5077   -1.8426 H   0  0  0  0  0  0  0  0  0  0  0  0
   -3.8919    1.7721   -2.5262 H   0  0  0  0  0  0  0  0  0  0  0  0
   -3.8701    3.2415   -1.5286 H   0  0  0  0  0  0  0  0  0  0  0  0
   -2.6283    2.1054    0.2390 H   0  0  0  0  0  0  0  0  0  0  0  0
   -3.7777    0.8503   -0.3107 H   0  0  0  0  0  0  0  0  0  0  0  0
   -3.3598   -1.3448    0.1665 H   0  0  0  0  0  0  0  0  0  0  0  0
   -1.2303    0.0736    1.8464 H   0  0  0  0  0  0  0  0  0  0  0  0
   -2.9855    0.2728    1.9006 H   0  0  0  0  0  0  0  0  0  0  0  0
   -3.1629   -1.3921    3.4859 H   0  0  0  0  0  0  0  0  0  0  0  0
   -1.3965   -1.4762    3.5118 H   0  0  0  0  0  0  0  0  0  0  0  0
   -1.7687   -3.6382    2.6350 H   0  0  0  0  0  0  0  0  0  0  0  0
   -3.3676   -3.1912    2.0037 H   0  0  0  0  0  0  0  0  0  0  0  0
   -1.9766   -3.2303    0.1091 H   0  0  0  0  0  0  0  0  0  0  0  0
  1  2  2  0  0  0  0
  2  3  1  0  0  0  0
  2  4  1  0  0  0  0
  4  5  1  0  0  0  0
  5  6  1  0  0  0  0
  6  7  2  0  0  0  0
  7  8  1  0  0  0  0
  8  9  2  0  0  0  0
  9 10  1  0  0  0  0
  9 11  1  0  0  0  0
 11 12  2  0  0  0  0
  4 13  1  0  0  0  0
 13 14  1  0  0  0  0
 14 15  2  0  0  0  0
 14 16  1  0  0  0  0
 16 17  1  0  0  0  0
 17 18  1  0  0  0  0
 18 19  1  0  0  0  0
 19 20  1  0  0  0  0
 20 21  1  0  0  0  0
 21 22  2  0  0  0  0
 21 23  1  0  0  0  0
 23 24  1  0  0  0  0
 24 25  1  0  0  0  0
 25 26  1  0  0  0  0
 26 27  1  0  0  0  0
  6 12  1  0  0  0  0
 16 20  1  0  0  0  0
 23 27  1  0  0  0  0
  3 28  1  0  0  0  0
  4 29  1  0  0  0  0
  5 30  1  0  0  0  0
  5 31  1  0  0  0  0
  7 32  1  0  0  0  0
  8 33  1  0  0  0  0
 10 34  1  0  0  0  0
 11 35  1  0  0  0  0
 12 36  1  0  0  0  0
 13 37  1  0  0  0  0
 16 38  1  0  0  0  0
 17 39  1  0  0  0  0
 17 40  1  0  0  0  0
 18 41  1  0  0  0  0
 18 42  1  0  0  0  0
 19 43  1  0  0  0  0
 19 44  1  0  0  0  0
 23 45  1  0  0  0  0
 24 46  1  0  0  0  0
 24 47  1  0  0  0  0
 25 48  1  0  0  0  0
 25 49  1  0  0  0  0
 26 50  1  0  0  0  0
 26 51  1  0  0  0  0
 27 52  1  0  0  0  0
M  END
$$$$
PPY.sdf
  PyMOL2.5          3D                             0

 52 54  0  0  1  0  0  0  0  0999 V2000
    2.4708   -1.5436   -2.0259 O   0  0  0  0  0  0  0  0  0  0  0  0
    2.8112   -0.4680   -1.5539 C   0  0  0  0  0  0  0  0  0  0  0  0
    3.9943    0.0803   -1.8960 O   0  0  0  0  0  0  0  0  0  0  0  0
    2.0226    0.3696   -0.5484 C   0  0  2  0  0  0  0  0  0  0  0  0
    2.2375   -0.1724    0.8697 C   0  0  0  0  0  0  0  0  0  0  0  0
    3.6339    0.0405    1.4039 C   0  0  0  0  0  0  0  0  0  0  0  0
    4.5159   -1.0413    1.5367 C   0  0  0  0  0  0  0  0  0  0  0  0
    5.8096   -0.8415    2.0203 C   0  0  0  0  0  0  0  0  0  0  0  0
    6.2247    0.4369    2.3707 C   0  0  0  0  0  0  0  0  0  0  0  0
    7.4975    0.5866    2.8363 O   0  0  0  0  0  0  0  0  0  0  0  0
    5.3654    1.5234    2.2480 C   0  0  0  0  0  0  0  0  0  0  0  0
    4.0700    1.3239    1.7652 C   0  0  0  0  0  0  0  0  0  0  0  0
    0.6042    0.2861   -0.9046 N   0  0  0  0  0  0  0  0  0  0  0  0
    0.0531    1.1077   -1.8657 C   0  0  0  0  0  0  0  0  0  0  0  0
    0.6886    2.0210   -2.3869 O   0  0  0  0  0  0  0  0  0  0  0  0
   -1.3727    0.6975   -2.3135 C   0  0  2  0  0  0  0  0  0  0  0  0
   -2.0367    1.7656   -3.1863 C   0  0  0  0  0  0  0  0  0  0  0  0
   -2.7605    2.6374   -2.1663 C   0  0  0  0  0  0  0  0  0  0  0  0
   -3.2825    1.6192   -1.1638 C   0  0  0  0  0  0  0  0  0  0  0  0
   -2.2966    0.5471   -1.1807 N   0  0  0  0  0  0  0  0  0  0  0  0
   -2.3228   -0.5943   -0.4050 C   0  0  0  0  0  0  0  0  0  0  0  0
   -1.4852   -1.4854   -0.5719 O   0  0  0  0  0  0  0  0  0  0  0  0
   -3.4393   -0.7064    0.6586 C   0  0  2  0  0  0  0  0  0  0  0  0
   -3.2018   -1.8211    1.6827 C   0  0  0  0  0  0  0  0  0  0  0  0
   -4.3618   -2.7817    1.4943 C   0  0  0  0  0  0  0  0  0  0  0  0
   -5.4507   -1.8958    0.9316 C   0  0  0  0  0  0  0  0  0  0  0  0
   -4.7334   -1.0277   -0.0077 N   0  0  0  0  0  0  0  0  0  0  0  0
    4.3815   -0.5524   -2.5350 H   0  0  0  0  0  0  0  0  0  0  0  0
    2.3365    1.4163   -0.6334 H   0  0  0  0  0  0  0  0  0  0  0  0
    1.5337    0.3109    1.5612 H   0  0  0  0  0  0  0  0  0  0  0  0
    1.9881   -1.2418    0.9057 H   0  0  0  0  0  0  0  0  0  0  0  0
    4.2051   -2.0475    1.2634 H   0  0  0  0  0  0  0  0  0  0  0  0
    6.4916   -1.6808    2.1218 H   0  0  0  0  0  0  0  0  0  0  0  0
    7.6474    1.5273    3.0246 H   0  0  0  0  0  0  0  0  0  0  0  0
    5.6819    2.5255    2.5189 H   0  0  0  0  0  0  0  0  0  0  0  0
    3.4029    2.1784    1.6709 H   0  0  0  0  0  0  0  0  0  0  0  0
    0.1480   -0.6235   -0.7958 H   0  0  0  0  0  0  0  0  0  0  0  0
   -1.2843   -0.2508   -2.8567 H   0  0  0  0  0  0  0  0  0  0  0  0
   -2.7750    1.2950   -3.8477 H   0  0  0  0  0  0  0  0  0  0  0  0
   -1.3450    2.3391   -3.8091 H   0  0  0  0  0  0  0  0  0  0  0  0
   -2.0485    3.3158   -1.6813 H   0  0  0  0  0  0  0  0  0  0  0  0
   -3.5597    3.2383   -2.6089 H   0  0  0  0  0  0  0  0  0  0  0  0
   -3.3884    2.0391   -0.1603 H   0  0  0  0  0  0  0  0  0  0  0  0
   -4.2442    1.2121   -1.4916 H   0  0  0  0  0  0  0  0  0  0  0  0
   -3.5187    0.2476    1.1909 H   0  0  0  0  0  0  0  0  0  0  0  0
   -3.2489   -1.3979    2.6941 H   0  0  0  0  0  0  0  0  0  0  0  0
   -2.2423   -2.3375    1.5895 H   0  0  0  0  0  0  0  0  0  0  0  0
   -4.0898   -3.5619    0.7729 H   0  0  0  0  0  0  0  0  0  0  0  0
   -4.6556   -3.2666    2.4297 H   0  0  0  0  0  0  0  0  0  0  0  0
   -6.2347   -2.4702    0.4295 H   0  0  0  0  0  0  0  0  0  0  0  0
   -5.9169   -1.2905    1.7173 H   0  0  0  0  0  0  0  0  0  0  0  0
   -4.5201   -1.5877   -0.8380 H   0  0  0  0  0  0  0  0  0  0  0  0
  1  2  2  0  0  0  0
  2  3  1  0  0  0  0
  2  4  1  0  0  0  0
  4  5  1  0  0  0  0
  5  6  1  0  0  0  0
  6  7  2  0  0  0  0
  7  8  1  0  0  0  0
  8  9  2  0  0  0  0
  9 10  1  0  0  0  0
  9 11  1  0  0  0  0
 11 12  2  0  0  0  0
  4 13  1  0  0  0  0
 13 14  1  0  0  0  0
 14 15  2  0  0  0  0
 14 16  1  0  0  0  0
 16 17  1  0  0  0  0
 17 18  1  0  0  0  0
 18 19  1  0  0  0  0
 19 20  1  0  0  0  0
 20 21  1  0  0  0  0
 21 22  2  0  0  0  0
 21 23  1  0  0  0  0
 23 24  1  0  0  0  0
 24 25  1  0  0  0  0
 25 26  1  0  0  0  0
 26 27  1  0  0  0  0
  6 12  1  0  0  0  0
 16 20  1  0  0  0  0
 23 27  1  0  0  0  0
  3 28  1  0  0  0  0
  4 29  1  0  0  0  0
  5 30  1  0  0  0  0
  5 31  1  0  0  0  0
  7 32  1  0  0  0  0
  8 33  1  0  0  0  0
 10 34  1  0  0  0  0
 11 35  1  0  0  0  0
 12 36  1  0  0  0  0
 13 37  1  0  0  0  0
 16 38  1  0  0  0  0
 17 39  1  0  0  0  0
 17 40  1  0  0  0  0
 18 41  1  0  0  0  0
 18 42  1  0  0  0  0
 19 43  1  0  0  0  0
 19 44  1  0  0  0  0
 23 45  1  0  0  0  0
 24 46  1  0  0  0  0
 24 47  1  0  0  0  0
 25 48  1  0  0  0  0
 25 49  1  0  0  0  0
 26 50  1  0  0  0  0
 26 51  1  0  0  0  0
 27 52  1  0  0  0  0
M  END
$$$$
PPY.sdf
  PyMOL2.5          3D                             0

 52 54  0  0  1  0  0  0  0  0999 V2000
    2.6375    1.9906   -2.1752 O   0  0  0  0  0  0  0  0  0  0  0  0
    2.7264    1.7972   -0.9696 C   0  0  0  0  0  0  0  0  0  0  0  0
    3.2160    2.7506   -0.1555 O   0  0  0  0  0  0  0  0  0  0  0  0
    2.3372    0.5104   -0.2459 C   0  0  2  0  0  0  0  0  0  0  0  0
    3.4751   -0.5129   -0.3369 C   0  0  0  0  0  0  0  0  0  0  0  0
    4.6942   -0.1457    0.4748 C   0  0  0  0  0  0  0  0  0  0  0  0
    4.6635   -0.2196    1.8753 C   0  0  0  0  0  0  0  0  0  0  0  0
    5.7856    0.1316    2.6293 C   0  0  0  0  0  0  0  0  0  0  0  0
    6.9401    0.5556    1.9806 C   0  0  0  0  0  0  0  0  0  0  0  0
    8.0577    0.9089    2.6772 O   0  0  0  0  0  0  0  0  0  0  0  0
    6.9900    0.6325    0.5945 C   0  0  0  0  0  0  0  0  0  0  0  0
    5.8690    0.2827   -0.1595 C   0  0  0  0  0  0  0  0  0  0  0  0
    1.1382   -0.0067   -0.9203 N   0  0  0  0  0  0  0  0  0  0  0  0
   -0.1238    0.3734   -0.5006 C   0  0  0  0  0  0  0  0  0  0  0  0
   -0.3089    1.0358    0.5178 O   0  0  0  0  0  0  0  0  0  0  0  0
   -1.2545   -0.0478   -1.4665 C   0  0  2  0  0  0  0  0  0  0  0  0
   -1.3659    0.9463   -2.6231 C   0  0  0  0  0  0  0  0  0  0  0  0
   -2.3307    1.9975   -2.0792 C   0  0  0  0  0  0  0  0  0  0  0  0
   -3.3180    1.1774   -1.2590 C   0  0  0  0  0  0  0  0  0  0  0  0
   -2.5586    0.0167   -0.8216 N   0  0  0  0  0  0  0  0  0  0  0  0
   -2.9812   -0.9893    0.0216 C   0  0  0  0  0  0  0  0  0  0  0  0
   -2.2880   -1.9913    0.2113 O   0  0  0  0  0  0  0  0  0  0  0  0
   -4.3780   -0.8255    0.6622 C   0  0  2  0  0  0  0  0  0  0  0  0
   -4.6310   -1.7839    1.8305 C   0  0  0  0  0  0  0  0  0  0  0  0
   -5.7826   -2.6612    1.3755 C   0  0  0  0  0  0  0  0  0  0  0  0
   -6.5127   -1.7789    0.3879 C   0  0  0  0  0  0  0  0  0  0  0  0
   -5.4306   -1.1241   -0.3538 N   0  0  0  0  0  0  0  0  0  0  0  0
    3.4236    3.5066   -0.7418 H   0  0  0  0  0  0  0  0  0  0  0  0
    2.0854    0.7455    0.7940 H   0  0  0  0  0  0  0  0  0  0  0  0
    3.1198   -1.4930    0.0094 H   0  0  0  0  0  0  0  0  0  0  0  0
    3.7632   -0.6643   -1.3862 H   0  0  0  0  0  0  0  0  0  0  0  0
    3.7630   -0.5507    2.3895 H   0  0  0  0  0  0  0  0  0  0  0  0
    5.7378    0.0684    3.7117 H   0  0  0  0  0  0  0  0  0  0  0  0
    7.8730    0.8098    3.6254 H   0  0  0  0  0  0  0  0  0  0  0  0
    7.8995    0.9644    0.1021 H   0  0  0  0  0  0  0  0  0  0  0  0
    5.9229    0.3492   -1.2438 H   0  0  0  0  0  0  0  0  0  0  0  0
    1.2446   -0.2470   -1.8992 H   0  0  0  0  0  0  0  0  0  0  0  0
   -1.0554   -1.0657   -1.8209 H   0  0  0  0  0  0  0  0  0  0  0  0
   -0.4118    1.3836   -2.9311 H   0  0  0  0  0  0  0  0  0  0  0  0
   -1.8175    0.4550   -3.4937 H   0  0  0  0  0  0  0  0  0  0  0  0
   -2.8194    2.5761   -2.8680 H   0  0  0  0  0  0  0  0  0  0  0  0
   -1.7916    2.6971   -1.4292 H   0  0  0  0  0  0  0  0  0  0  0  0
   -3.7127    1.7358   -0.4064 H   0  0  0  0  0  0  0  0  0  0  0  0
   -4.1485    0.8298   -1.8815 H   0  0  0  0  0  0  0  0  0  0  0  0
   -4.4866    0.2031    1.0225 H   0  0  0  0  0  0  0  0  0  0  0  0
   -4.9471   -1.2068    2.7087 H   0  0  0  0  0  0  0  0  0  0  0  0
   -3.7680   -2.3861    2.1285 H   0  0  0  0  0  0  0  0  0  0  0  0
   -5.3970   -3.5591    0.8773 H   0  0  0  0  0  0  0  0  0  0  0  0
   -6.4184   -2.9766    2.2078 H   0  0  0  0  0  0  0  0  0  0  0  0
   -7.1211   -1.0258    0.9017 H   0  0  0  0  0  0  0  0  0  0  0  0
   -7.1654   -2.3524   -0.2767 H   0  0  0  0  0  0  0  0  0  0  0  0
   -5.0383   -1.8172   -0.9971 H   0  0  0  0  0  0  0  0  0  0  0  0
  1  2  2  0  0  0  0
  2  3  1  0  0  0  0
  2  4  1  0  0  0  0
  4  5  1  0  0  0  0
  5  6  1  0  0  0  0
  6  7  2  0  0  0  0
  7  8  1  0  0  0  0
  8  9  2  0  0  0  0
  9 10  1  0  0  0  0
  9 11  1  0  0  0  0
 11 12  2  0  0  0  0
  4 13  1  0  0  0  0
 13 14  1  0  0  0  0
 14 15  2  0  0  0  0
 14 16  1  0  0  0  0
 16 17  1  0  0  0  0
 17 18  1  0  0  0  0
 18 19  1  0  0  0  0
 19 20  1  0  0  0  0
 20 21  1  0  0  0  0
 21 22  2  0  0  0  0
 21 23  1  0  0  0  0
 23 24  1  0  0  0  0
 24 25  1  0  0  0  0
 25 26  1  0  0  0  0
 26 27  1  0  0  0  0
  6 12  1  0  0  0  0
 16 20  1  0  0  0  0
 23 27  1  0  0  0  0
  3 28  1  0  0  0  0
  4 29  1  0  0  0  0
  5 30  1  0  0  0  0
  5 31  1  0  0  0  0
  7 32  1  0  0  0  0
  8 33  1  0  0  0  0
 10 34  1  0  0  0  0
 11 35  1  0  0  0  0
 12 36  1  0  0  0  0
 13 37  1  0  0  0  0
 16 38  1  0  0  0  0
 17 39  1  0  0  0  0
 17 40  1  0  0  0  0
 18 41  1  0  0  0  0
 18 42  1  0  0  0  0
 19 43  1  0  0  0  0
 19 44  1  0  0  0  0
 23 45  1  0  0  0  0
 24 46  1  0  0  0  0
 24 47  1  0  0  0  0
 25 48  1  0  0  0  0
 25 49  1  0  0  0  0
 26 50  1  0  0  0  0
 26 51  1  0  0  0  0
 27 52  1  0  0  0  0
M  END
$$$$
PPY.sdf
  PyMOL2.5          3D                             0

 52 54  0  0  1  0  0  0  0  0999 V2000
    0.9210   -1.3816    2.2875 O   0  0  0  0  0  0  0  0  0  0  0  0
    1.7488   -2.0036    1.6343 C   0  0  0  0  0  0  0  0  0  0  0  0
    2.6099   -2.8367    2.2529 O   0  0  0  0  0  0  0  0  0  0  0  0
    1.8896   -1.9889    0.1134 C   0  0  2  0  0  0  0  0  0  0  0  0
    3.3088   -1.6126   -0.3422 C   0  0  0  0  0  0  0  0  0  0  0  0
    3.7282   -0.1952   -0.0156 C   0  0  0  0  0  0  0  0  0  0  0  0
    3.5131    0.8341   -0.9432 C   0  0  0  0  0  0  0  0  0  0  0  0
    3.8805    2.1461   -0.6432 C   0  0  0  0  0  0  0  0  0  0  0  0
    4.4673    2.4325    0.5823 C   0  0  0  0  0  0  0  0  0  0  0  0
    4.8090    3.7279    0.8359 O   0  0  0  0  0  0  0  0  0  0  0  0
    4.6979    1.4260    1.5142 C   0  0  0  0  0  0  0  0  0  0  0  0
    4.3296    0.1124    1.2134 C   0  0  0  0  0  0  0  0  0  0  0  0
    0.8494   -1.1151   -0.4236 N   0  0  0  0  0  0  0  0  0  0  0  0
    0.3847   -1.2203   -1.7124 C   0  0  0  0  0  0  0  0  0  0  0  0
    0.9664   -1.8804   -2.5708 O   0  0  0  0  0  0  0  0  0  0  0  0
   -0.8337   -0.3300   -2.0355 C   0  0  2  0  0  0  0  0  0  0  0  0
   -0.3857    0.9655   -2.7179 C   0  0  0  0  0  0  0  0  0  0  0  0
   -0.3071    1.9723   -1.5744 C   0  0  0  0  0  0  0  0  0  0  0  0
   -1.4724    1.5696   -0.6872 C   0  0  0  0  0  0  0  0  0  0  0  0
   -1.5478    0.1249   -0.8335 N   0  0  0  0  0  0  0  0  0  0  0  0
   -2.4267   -0.7171   -0.1752 C   0  0  0  0  0  0  0  0  0  0  0  0
   -2.5229   -1.9035   -0.4965 O   0  0  0  0  0  0  0  0  0  0  0  0
   -3.2254   -0.1206    1.0115 C   0  0  2  0  0  0  0  0  0  0  0  0
   -4.0589   -1.1604    1.7502 C   0  0  0  0  0  0  0  0  0  0  0  0
   -5.3897   -1.1932    1.0088 C   0  0  0  0  0  0  0  0  0  0  0  0
   -5.3589    0.0034    0.0708 C   0  0  0  0  0  0  0  0  0  0  0  0
   -4.2482    0.8455    0.5360 N   0  0  0  0  0  0  0  0  0  0  0  0
    2.3592   -2.7789    3.1992 H   0  0  0  0  0  0  0  0  0  0  0  0
    1.6603   -3.0051   -0.2320 H   0  0  0  0  0  0  0  0  0  0  0  0
    4.0401   -2.3028    0.0983 H   0  0  0  0  0  0  0  0  0  0  0  0
    3.3968   -1.7577   -1.4268 H   0  0  0  0  0  0  0  0  0  0  0  0
    3.0561    0.6171   -1.9068 H   0  0  0  0  0  0  0  0  0  0  0  0
    3.7112    2.9400   -1.3647 H   0  0  0  0  0  0  0  0  0  0  0  0
    5.2304    3.7703    1.7097 H   0  0  0  0  0  0  0  0  0  0  0  0
    5.1610    1.6412    2.4717 H   0  0  0  0  0  0  0  0  0  0  0  0
    4.5218   -0.6705    1.9437 H   0  0  0  0  0  0  0  0  0  0  0  0
    0.2348   -0.6585    0.2451 H   0  0  0  0  0  0  0  0  0  0  0  0
   -1.5121   -0.9119   -2.6697 H   0  0  0  0  0  0  0  0  0  0  0  0
    0.5626    0.8784   -3.2569 H   0  0  0  0  0  0  0  0  0  0  0  0
   -1.1538    1.2891   -3.4311 H   0  0  0  0  0  0  0  0  0  0  0  0
   -0.3755    3.0091   -1.9148 H   0  0  0  0  0  0  0  0  0  0  0  0
    0.6369    1.8519   -1.0323 H   0  0  0  0  0  0  0  0  0  0  0  0
   -2.4058    2.0048   -1.0586 H   0  0  0  0  0  0  0  0  0  0  0  0
   -1.3263    1.8543    0.3578 H   0  0  0  0  0  0  0  0  0  0  0  0
   -2.5144    0.3548    1.6956 H   0  0  0  0  0  0  0  0  0  0  0  0
   -3.5953   -2.1509    1.7925 H   0  0  0  0  0  0  0  0  0  0  0  0
   -4.2326   -0.8333    2.7832 H   0  0  0  0  0  0  0  0  0  0  0  0
   -5.5045   -2.1245    0.4440 H   0  0  0  0  0  0  0  0  0  0  0  0
   -6.2207   -1.1249    1.7193 H   0  0  0  0  0  0  0  0  0  0  0  0
   -5.1755   -0.3174   -0.9610 H   0  0  0  0  0  0  0  0  0  0  0  0
   -6.3043    0.5548    0.0803 H   0  0  0  0  0  0  0  0  0  0  0  0
   -4.5769    1.3693    1.3486 H   0  0  0  0  0  0  0  0  0  0  0  0
  1  2  2  0  0  0  0
  2  3  1  0  0  0  0
  2  4  1  0  0  0  0
  4  5  1  0  0  0  0
  5  6  1  0  0  0  0
  6  7  2  0  0  0  0
  7  8  1  0  0  0  0
  8  9  2  0  0  0  0
  9 10  1  0  0  0  0
  9 11  1  0  0  0  0
 11 12  2  0  0  0  0
  4 13  1  0  0  0  0
 13 14  1  0  0  0  0
 14 15  2  0  0  0  0
 14 16  1  0  0  0  0
 16 17  1  0  0  0  0
 17 18  1  0  0  0  0
 18 19  1  0  0  0  0
 19 20  1  0  0  0  0
 20 21  1  0  0  0  0
 21 22  2  0  0  0  0
 21 23  1  0  0  0  0
 23 24  1  0  0  0  0
 24 25  1  0  0  0  0
 25 26  1  0  0  0  0
 26 27  1  0  0  0  0
  6 12  1  0  0  0  0
 16 20  1  0  0  0  0
 23 27  1  0  0  0  0
  3 28  1  0  0  0  0
  4 29  1  0  0  0  0
  5 30  1  0  0  0  0
  5 31  1  0  0  0  0
  7 32  1  0  0  0  0
  8 33  1  0  0  0  0
 10 34  1  0  0  0  0
 11 35  1  0  0  0  0
 12 36  1  0  0  0  0
 13 37  1  0  0  0  0
 16 38  1  0  0  0  0
 17 39  1  0  0  0  0
 17 40  1  0  0  0  0
 18 41  1  0  0  0  0
 18 42  1  0  0  0  0
 19 43  1  0  0  0  0
 19 44  1  0  0  0  0
 23 45  1  0  0  0  0
 24 46  1  0  0  0  0
 24 47  1  0  0  0  0
 25 48  1  0  0  0  0
 25 49  1  0  0  0  0
 26 50  1  0  0  0  0
 26 51  1  0  0  0  0
 27 52  1  0  0  0  0
M  END
$$$$
PPY.sdf
  PyMOL2.5          3D                             0

 52 54  0  0  1  0  0  0  0  0999 V2000
    0.1404   -0.7440    1.5604 O   0  0  0  0  0  0  0  0  0  0  0  0
    1.1106   -1.0371    0.8726 C   0  0  0  0  0  0  0  0  0  0  0  0
    1.8664   -2.1105    1.1665 O   0  0  0  0  0  0  0  0  0  0  0  0
    1.5848   -0.2653   -0.3556 C   0  0  2  0  0  0  0  0  0  0  0  0
    2.2696    1.0353    0.0760 C   0  0  0  0  0  0  0  0  0  0  0  0
    3.5906    0.8230    0.7756 C   0  0  0  0  0  0  0  0  0  0  0  0
    4.7238    0.4345    0.0472 C   0  0  0  0  0  0  0  0  0  0  0  0
    5.9424    0.2284    0.6951 C   0  0  0  0  0  0  0  0  0  0  0  0
    6.0315    0.4092    2.0695 C   0  0  0  0  0  0  0  0  0  0  0  0
    7.2415    0.1977    2.6611 O   0  0  0  0  0  0  0  0  0  0  0  0
    4.9193    0.7932    2.8109 C   0  0  0  0  0  0  0  0  0  0  0  0
    3.6990    0.9995    2.1630 C   0  0  0  0  0  0  0  0  0  0  0  0
    0.3783    0.0350   -1.1349 N   0  0  0  0  0  0  0  0  0  0  0  0
    0.0688   -0.6837   -2.2735 C   0  0  0  0  0  0  0  0  0  0  0  0
    0.9048   -1.3262   -2.9033 O   0  0  0  0  0  0  0  0  0  0  0  0
   -1.3572   -0.4474   -2.8042 C   0  0  2  0  0  0  0  0  0  0  0  0
   -1.3668    0.7613   -3.7446 C   0  0  0  0  0  0  0  0  0  0  0  0
   -2.7483    1.3649   -3.5400 C   0  0  0  0  0  0  0  0  0  0  0  0
   -2.9951    1.1647   -2.0536 C   0  0  0  0  0  0  0  0  0  0  0  0
   -2.3160   -0.0846   -1.7443 N   0  0  0  0  0  0  0  0  0  0  0  0
   -2.7416   -1.0445   -0.8428 C   0  0  0  0  0  0  0  0  0  0  0  0
   -2.2620   -2.1814   -0.8551 O   0  0  0  0  0  0  0  0  0  0  0  0
   -3.8229   -0.6367    0.1878 C   0  0  2  0  0  0  0  0  0  0  0  0
   -3.3532    0.4779    1.1229 C   0  0  0  0  0  0  0  0  0  0  0  0
   -3.4234   -0.1167    2.5205 C   0  0  0  0  0  0  0  0  0  0  0  0
   -3.3447   -1.6071    2.2793 C   0  0  0  0  0  0  0  0  0  0  0  0
   -4.1519   -1.7825    1.0726 N   0  0  0  0  0  0  0  0  0  0  0  0
    1.4263   -2.5310    1.9332 H   0  0  0  0  0  0  0  0  0  0  0  0
    2.2552   -0.9003   -0.9445 H   0  0  0  0  0  0  0  0  0  0  0  0
    1.6011    1.6202    0.7226 H   0  0  0  0  0  0  0  0  0  0  0  0
    2.4465    1.6694   -0.8035 H   0  0  0  0  0  0  0  0  0  0  0  0
    4.6670    0.2880   -1.0297 H   0  0  0  0  0  0  0  0  0  0  0  0
    6.8187   -0.0738    0.1287 H   0  0  0  0  0  0  0  0  0  0  0  0
    7.1511    0.3541    3.6150 H   0  0  0  0  0  0  0  0  0  0  0  0
    4.9811    0.9360    3.8849 H   0  0  0  0  0  0  0  0  0  0  0  0
    2.8333    1.2983    2.7506 H   0  0  0  0  0  0  0  0  0  0  0  0
   -0.4294    0.3373   -0.5988 H   0  0  0  0  0  0  0  0  0  0  0  0
   -1.7164   -1.3576   -3.2979 H   0  0  0  0  0  0  0  0  0  0  0  0
   -1.1884    0.4731   -4.7852 H   0  0  0  0  0  0  0  0  0  0  0  0
   -0.5977    1.4934   -3.4682 H   0  0  0  0  0  0  0  0  0  0  0  0
   -2.8048    2.4149   -3.8395 H   0  0  0  0  0  0  0  0  0  0  0  0
   -3.4867    0.8007   -4.1225 H   0  0  0  0  0  0  0  0  0  0  0  0
   -2.5154    1.9547   -1.4662 H   0  0  0  0  0  0  0  0  0  0  0  0
   -4.0605    1.1334   -1.8176 H   0  0  0  0  0  0  0  0  0  0  0  0
   -4.7318   -0.3608   -0.3552 H   0  0  0  0  0  0  0  0  0  0  0  0
   -2.3252    0.7911    0.9098 H   0  0  0  0  0  0  0  0  0  0  0  0
   -3.9953    1.3623    1.0527 H   0  0  0  0  0  0  0  0  0  0  0  0
   -4.3795    0.1457    2.9901 H   0  0  0  0  0  0  0  0  0  0  0  0
   -2.6179    0.2467    3.1654 H   0  0  0  0  0  0  0  0  0  0  0  0
   -2.3109   -1.9247    2.1035 H   0  0  0  0  0  0  0  0  0  0  0  0
   -3.7473   -2.1822    3.1177 H   0  0  0  0  0  0  0  0  0  0  0  0
   -3.8621   -2.6458    0.6001 H   0  0  0  0  0  0  0  0  0  0  0  0
  1  2  2  0  0  0  0
  2  3  1  0  0  0  0
  2  4  1  0  0  0  0
  4  5  1  0  0  0  0
  5  6  1  0  0  0  0
  6  7  2  0  0  0  0
  7  8  1  0  0  0  0
  8  9  2  0  0  0  0
  9 10  1  0  0  0  0
  9 11  1  0  0  0  0
 11 12  2  0  0  0  0
  4 13  1  0  0  0  0
 13 14  1  0  0  0  0
 14 15  2  0  0  0  0
 14 16  1  0  0  0  0
 16 17  1  0  0  0  0
 17 18  1  0  0  0  0
 18 19  1  0  0  0  0
 19 20  1  0  0  0  0
 20 21  1  0  0  0  0
 21 22  2  0  0  0  0
 21 23  1  0  0  0  0
 23 24  1  0  0  0  0
 24 25  1  0  0  0  0
 25 26  1  0  0  0  0
 26 27  1  0  0  0  0
  6 12  1  0  0  0  0
 16 20  1  0  0  0  0
 23 27  1  0  0  0  0
  3 28  1  0  0  0  0
  4 29  1  0  0  0  0
  5 30  1  0  0  0  0
  5 31  1  0  0  0  0
  7 32  1  0  0  0  0
  8 33  1  0  0  0  0
 10 34  1  0  0  0  0
 11 35  1  0  0  0  0
 12 36  1  0  0  0  0
 13 37  1  0  0  0  0
 16 38  1  0  0  0  0
 17 39  1  0  0  0  0
 17 40  1  0  0  0  0
 18 41  1  0  0  0  0
 18 42  1  0  0  0  0
 19 43  1  0  0  0  0
 19 44  1  0  0  0  0
 23 45  1  0  0  0  0
 24 46  1  0  0  0  0
 24 47  1  0  0  0  0
 25 48  1  0  0  0  0
 25 49  1  0  0  0  0
 26 50  1  0  0  0  0
 26 51  1  0  0  0  0
 27 52  1  0  0  0  0
M  END
$$$$
PPY.sdf
  PyMOL2.5          3D                             0

 52 54  0  0  1  0  0  0  0  0999 V2000
    2.1270    3.2181   -0.6261 O   0  0  0  0  0  0  0  0  0  0  0  0
    2.3346    2.3091    0.1675 C   0  0  0  0  0  0  0  0  0  0  0  0
    2.8510    2.5672    1.3824 O   0  0  0  0  0  0  0  0  0  0  0  0
    2.0446    0.8330   -0.0839 C   0  0  2  0  0  0  0  0  0  0  0  0
    3.2737    0.1341   -0.6795 C   0  0  0  0  0  0  0  0  0  0  0  0
    4.3777   -0.1152    0.3205 C   0  0  0  0  0  0  0  0  0  0  0  0
    5.5651    0.6297    0.2789 C   0  0  0  0  0  0  0  0  0  0  0  0
    6.5802    0.3970    1.2101 C   0  0  0  0  0  0  0  0  0  0  0  0
    6.4065   -0.5824    2.1825 C   0  0  0  0  0  0  0  0  0  0  0  0
    7.3723   -0.8420    3.1096 O   0  0  0  0  0  0  0  0  0  0  0  0
    5.2378   -1.3311    2.2375 C   0  0  0  0  0  0  0  0  0  0  0  0
    4.2239   -1.0997    1.3074 C   0  0  0  0  0  0  0  0  0  0  0  0
    0.9128    0.7798   -1.0199 N   0  0  0  0  0  0  0  0  0  0  0  0
    0.0756   -0.3118   -1.0568 C   0  0  0  0  0  0  0  0  0  0  0  0
    0.3239   -1.3401   -0.4266 O   0  0  0  0  0  0  0  0  0  0  0  0
   -1.1242   -0.2116   -2.0259 C   0  0  2  0  0  0  0  0  0  0  0  0
   -1.5779    1.1434   -2.5505 C   0  0  0  0  0  0  0  0  0  0  0  0
   -2.9580    0.8405   -3.1558 C   0  0  0  0  0  0  0  0  0  0  0  0
   -3.3545   -0.5421   -2.6163 C   0  0  0  0  0  0  0  0  0  0  0  0
   -2.3782   -0.8192   -1.5765 N   0  0  0  0  0  0  0  0  0  0  0  0
   -2.7884   -0.5447   -0.2610 C   0  0  0  0  0  0  0  0  0  0  0  0
   -2.2052    0.2629    0.4633 O   0  0  0  0  0  0  0  0  0  0  0  0
   -4.0106   -1.3619    0.2240 C   0  0  2  0  0  0  0  0  0  0  0  0
   -5.2402   -0.4708    0.3965 C   0  0  0  0  0  0  0  0  0  0  0  0
   -5.5980   -0.5657    1.8717 C   0  0  0  0  0  0  0  0  0  0  0  0
   -4.3094   -1.0045    2.5322 C   0  0  0  0  0  0  0  0  0  0  0  0
   -3.7489   -1.9432    1.5623 N   0  0  0  0  0  0  0  0  0  0  0  0
    2.9693    3.5386    1.4111 H   0  0  0  0  0  0  0  0  0  0  0  0
    1.7183    0.3740    0.8567 H   0  0  0  0  0  0  0  0  0  0  0  0
    2.9901   -0.8360   -1.1091 H   0  0  0  0  0  0  0  0  0  0  0  0
    3.6646    0.7184   -1.5235 H   0  0  0  0  0  0  0  0  0  0  0  0
    5.7087    1.3965   -0.4790 H   0  0  0  0  0  0  0  0  0  0  0  0
    7.4912    0.9845    1.1601 H   0  0  0  0  0  0  0  0  0  0  0  0
    8.1251   -0.2519    2.9442 H   0  0  0  0  0  0  0  0  0  0  0  0
    5.1149   -2.0940    3.0008 H   0  0  0  0  0  0  0  0  0  0  0  0
    3.3128   -1.6943    1.3560 H   0  0  0  0  0  0  0  0  0  0  0  0
    0.6232    1.6609   -1.4308 H   0  0  0  0  0  0  0  0  0  0  0  0
   -0.8029   -0.8095   -2.8932 H   0  0  0  0  0  0  0  0  0  0  0  0
   -1.6794    1.8741   -1.7393 H   0  0  0  0  0  0  0  0  0  0  0  0
   -0.8884    1.5608   -3.2909 H   0  0  0  0  0  0  0  0  0  0  0  0
   -2.9247    0.8299   -4.2504 H   0  0  0  0  0  0  0  0  0  0  0  0
   -3.6811    1.6060   -2.8541 H   0  0  0  0  0  0  0  0  0  0  0  0
   -4.3880   -0.5546   -2.2635 H   0  0  0  0  0  0  0  0  0  0  0  0
   -3.2374   -1.3031   -3.3958 H   0  0  0  0  0  0  0  0  0  0  0  0
   -4.2058   -2.1812   -0.4759 H   0  0  0  0  0  0  0  0  0  0  0  0
   -6.0780   -0.8161   -0.2188 H   0  0  0  0  0  0  0  0  0  0  0  0
   -5.0330    0.5709    0.1252 H   0  0  0  0  0  0  0  0  0  0  0  0
   -6.3784   -1.3230    2.0169 H   0  0  0  0  0  0  0  0  0  0  0  0
   -5.9701    0.3834    2.2686 H   0  0  0  0  0  0  0  0  0  0  0  0
   -3.6385   -0.1522    2.6878 H   0  0  0  0  0  0  0  0  0  0  0  0
   -4.4865   -1.4856    3.4981 H   0  0  0  0  0  0  0  0  0  0  0  0
   -2.7391   -2.0251    1.7057 H   0  0  0  0  0  0  0  0  0  0  0  0
  1  2  2  0  0  0  0
  2  3  1  0  0  0  0
  2  4  1  0  0  0  0
  4  5  1  0  0  0  0
  5  6  1  0  0  0  0
  6  7  2  0  0  0  0
  7  8  1  0  0  0  0
  8  9  2  0  0  0  0
  9 10  1  0  0  0  0
  9 11  1  0  0  0  0
 11 12  2  0  0  0  0
  4 13  1  0  0  0  0
 13 14  1  0  0  0  0
 14 15  2  0  0  0  0
 14 16  1  0  0  0  0
 16 17  1  0  0  0  0
 17 18  1  0  0  0  0
 18 19  1  0  0  0  0
 19 20  1  0  0  0  0
 20 21  1  0  0  0  0
 21 22  2  0  0  0  0
 21 23  1  0  0  0  0
 23 24  1  0  0  0  0
 24 25  1  0  0  0  0
 25 26  1  0  0  0  0
 26 27  1  0  0  0  0
  6 12  1  0  0  0  0
 16 20  1  0  0  0  0
 23 27  1  0  0  0  0
  3 28  1  0  0  0  0
  4 29  1  0  0  0  0
  5 30  1  0  0  0  0
  5 31  1  0  0  0  0
  7 32  1  0  0  0  0
  8 33  1  0  0  0  0
 10 34  1  0  0  0  0
 11 35  1  0  0  0  0
 12 36  1  0  0  0  0
 13 37  1  0  0  0  0
 16 38  1  0  0  0  0
 17 39  1  0  0  0  0
 17 40  1  0  0  0  0
 18 41  1  0  0  0  0
 18 42  1  0  0  0  0
 19 43  1  0  0  0  0
 19 44  1  0  0  0  0
 23 45  1  0  0  0  0
 24 46  1  0  0  0  0
 24 47  1  0  0  0  0
 25 48  1  0  0  0  0
 25 49  1  0  0  0  0
 26 50  1  0  0  0  0
 26 51  1  0  0  0  0
 27 52  1  0  0  0  0
M  END
$$$$
PPY.sdf
  PyMOL2.5          3D                             0

 52 54  0  0  1  0  0  0  0  0999 V2000
    2.2574    2.3325    1.9719 O   0  0  0  0  0  0  0  0  0  0  0  0
    1.4770    1.7439    1.2410 C   0  0  0  0  0  0  0  0  0  0  0  0
    0.1965    2.1877    1.1519 O   0  0  0  0  0  0  0  0  0  0  0  0
    1.7592    0.5030    0.3832 C   0  0  2  0  0  0  0  0  0  0  0  0
    2.9847    0.7421   -0.5116 C   0  0  0  0  0  0  0  0  0  0  0  0
    4.2805    0.3275    0.1474 C   0  0  0  0  0  0  0  0  0  0  0  0
    5.1089    1.2717    0.7688 C   0  0  0  0  0  0  0  0  0  0  0  0
    6.2974    0.8744    1.3862 C   0  0  0  0  0  0  0  0  0  0  0  0
    6.6560   -0.4696    1.3820 C   0  0  0  0  0  0  0  0  0  0  0  0
    7.8070   -0.8989    1.9744 O   0  0  0  0  0  0  0  0  0  0  0  0
    5.8460   -1.4200    0.7739 C   0  0  0  0  0  0  0  0  0  0  0  0
    4.6581   -1.0236    0.1588 C   0  0  0  0  0  0  0  0  0  0  0  0
    0.5698    0.1971   -0.4182 N   0  0  0  0  0  0  0  0  0  0  0  0
    0.3443   -1.0717   -0.9064 C   0  0  0  0  0  0  0  0  0  0  0  0
    1.2241   -1.9294   -0.9481 O   0  0  0  0  0  0  0  0  0  0  0  0
   -1.0344   -1.2758   -1.5620 C   0  0  2  0  0  0  0  0  0  0  0  0
   -0.9064   -1.0613   -3.0740 C   0  0  0  0  0  0  0  0  0  0  0  0
   -2.2612   -0.4997   -3.4760 C   0  0  0  0  0  0  0  0  0  0  0  0
   -2.6290    0.3835   -2.2957 C   0  0  0  0  0  0  0  0  0  0  0  0
   -2.0592   -0.3023   -1.1462 N   0  0  0  0  0  0  0  0  0  0  0  0
   -2.6017   -0.3637    0.1259 C   0  0  0  0  0  0  0  0  0  0  0  0
   -2.1190   -1.1117    0.9790 O   0  0  0  0  0  0  0  0  0  0  0  0
   -3.7916    0.5759    0.4430 C   0  0  2  0  0  0  0  0  0  0  0  0
   -4.0813    0.6769    1.9359 C   0  0  0  0  0  0  0  0  0  0  0  0
   -5.0617   -0.4533    2.2266 C   0  0  0  0  0  0  0  0  0  0  0  0
   -5.4630   -1.0003    0.8661 C   0  0  0  0  0  0  0  0  0  0  0  0
   -5.0561    0.0246   -0.1054 N   0  0  0  0  0  0  0  0  0  0  0  0
    0.1845    2.9403    1.7822 H   0  0  0  0  0  0  0  0  0  0  0  0
    1.9037   -0.3387    1.0715 H   0  0  0  0  0  0  0  0  0  0  0  0
    2.8997    0.1817   -1.4521 H   0  0  0  0  0  0  0  0  0  0  0  0
    3.0453    1.7961   -0.8141 H   0  0  0  0  0  0  0  0  0  0  0  0
    4.8294    2.3231    0.7859 H   0  0  0  0  0  0  0  0  0  0  0  0
    6.9210    1.6227    1.8641 H   0  0  0  0  0  0  0  0  0  0  0  0
    8.2529   -0.1317    2.3681 H   0  0  0  0  0  0  0  0  0  0  0  0
    6.1343   -2.4671    0.7803 H   0  0  0  0  0  0  0  0  0  0  0  0
    4.0247   -1.7758   -0.3103 H   0  0  0  0  0  0  0  0  0  0  0  0
   -0.2624    0.7375   -0.1987 H   0  0  0  0  0  0  0  0  0  0  0  0
   -1.3998   -2.2802   -1.3189 H   0  0  0  0  0  0  0  0  0  0  0  0
   -0.1192   -0.3343   -3.3109 H   0  0  0  0  0  0  0  0  0  0  0  0
   -0.6673   -1.9898   -3.6018 H   0  0  0  0  0  0  0  0  0  0  0  0
   -2.9853   -1.3176   -3.5735 H   0  0  0  0  0  0  0  0  0  0  0  0
   -2.2329    0.0489   -4.4214 H   0  0  0  0  0  0  0  0  0  0  0  0
   -3.7061    0.5331   -2.2225 H   0  0  0  0  0  0  0  0  0  0  0  0
   -2.1377    1.3600   -2.3673 H   0  0  0  0  0  0  0  0  0  0  0  0
   -3.5727    1.5654    0.0273 H   0  0  0  0  0  0  0  0  0  0  0  0
   -3.1866    0.6062    2.5626 H   0  0  0  0  0  0  0  0  0  0  0  0
   -4.5652    1.6363    2.1582 H   0  0  0  0  0  0  0  0  0  0  0  0
   -4.5973   -1.2343    2.8380 H   0  0  0  0  0  0  0  0  0  0  0  0
   -5.9293   -0.0684    2.7738 H   0  0  0  0  0  0  0  0  0  0  0  0
   -6.5376   -1.1987    0.8058 H   0  0  0  0  0  0  0  0  0  0  0  0
   -4.9425   -1.9416    0.6557 H   0  0  0  0  0  0  0  0  0  0  0  0
   -5.7560    0.7674   -0.0800 H   0  0  0  0  0  0  0  0  0  0  0  0
  1  2  2  0  0  0  0
  2  3  1  0  0  0  0
  2  4  1  0  0  0  0
  4  5  1  0  0  0  0
  5  6  1  0  0  0  0
  6  7  2  0  0  0  0
  7  8  1  0  0  0  0
  8  9  2  0  0  0  0
  9 10  1  0  0  0  0
  9 11  1  0  0  0  0
 11 12  2  0  0  0  0
  4 13  1  0  0  0  0
 13 14  1  0  0  0  0
 14 15  2  0  0  0  0
 14 16  1  0  0  0  0
 16 17  1  0  0  0  0
 17 18  1  0  0  0  0
 18 19  1  0  0  0  0
 19 20  1  0  0  0  0
 20 21  1  0  0  0  0
 21 22  2  0  0  0  0
 21 23  1  0  0  0  0
 23 24  1  0  0  0  0
 24 25  1  0  0  0  0
 25 26  1  0  0  0  0
 26 27  1  0  0  0  0
  6 12  1  0  0  0  0
 16 20  1  0  0  0  0
 23 27  1  0  0  0  0
  3 28  1  0  0  0  0
  4 29  1  0  0  0  0
  5 30  1  0  0  0  0
  5 31  1  0  0  0  0
  7 32  1  0  0  0  0
  8 33  1  0  0  0  0
 10 34  1  0  0  0  0
 11 35  1  0  0  0  0
 12 36  1  0  0  0  0
 13 37  1  0  0  0  0
 16 38  1  0  0  0  0
 17 39  1  0  0  0  0
 17 40  1  0  0  0  0
 18 41  1  0  0  0  0
 18 42  1  0  0  0  0
 19 43  1  0  0  0  0
 19 44  1  0  0  0  0
 23 45  1  0  0  0  0
 24 46  1  0  0  0  0
 24 47  1  0  0  0  0
 25 48  1  0  0  0  0
 25 49  1  0  0  0  0
 26 50  1  0  0  0  0
 26 51  1  0  0  0  0
 27 52  1  0  0  0  0
M  END
$$$$
PPY.sdf
  PyMOL2.5          3D                             0

 52 54  0  0  1  0  0  0  0  0999 V2000
    2.9102    3.4373   -2.1353 O   0  0  0  0  0  0  0  0  0  0  0  0
    2.6772    3.2514   -0.9502 C   0  0  0  0  0  0  0  0  0  0  0  0
    2.9924    4.2025   -0.0430 O   0  0  0  0  0  0  0  0  0  0  0  0
    2.1025    1.9872   -0.3023 C   0  0  2  0  0  0  0  0  0  0  0  0
    3.2983    1.0830    0.0317 C   0  0  0  0  0  0  0  0  0  0  0  0
    2.9645   -0.0516    0.9722 C   0  0  0  0  0  0  0  0  0  0  0  0
    2.7764    0.1946    2.3400 C   0  0  0  0  0  0  0  0  0  0  0  0
    2.4877   -0.8550    3.2132 C   0  0  0  0  0  0  0  0  0  0  0  0
    2.3847   -2.1506    2.7226 C   0  0  0  0  0  0  0  0  0  0  0  0
    2.0876   -3.1442    3.6077 O   0  0  0  0  0  0  0  0  0  0  0  0
    2.5649   -2.4161    1.3697 C   0  0  0  0  0  0  0  0  0  0  0  0
    2.8549   -1.3657    0.4961 C   0  0  0  0  0  0  0  0  0  0  0  0
    1.1590    1.3457   -1.2205 N   0  0  0  0  0  0  0  0  0  0  0  0
   -0.0290    1.9837   -1.5339 C   0  0  0  0  0  0  0  0  0  0  0  0
   -0.3002    3.1092   -1.1221 O   0  0  0  0  0  0  0  0  0  0  0  0
   -0.9860    1.1305   -2.3952 C   0  0  2  0  0  0  0  0  0  0  0  0
   -2.0023    2.0012   -3.1470 C   0  0  0  0  0  0  0  0  0  0  0  0
   -3.2668    1.1551   -3.1556 C   0  0  0  0  0  0  0  0  0  0  0  0
   -3.2284    0.4801   -1.7955 C   0  0  0  0  0  0  0  0  0  0  0  0
   -1.8125    0.2478   -1.5593 N   0  0  0  0  0  0  0  0  0  0  0  0
   -1.2651   -0.8427   -0.9184 C   0  0  0  0  0  0  0  0  0  0  0  0
   -0.0602   -1.1000   -1.0282 O   0  0  0  0  0  0  0  0  0  0  0  0
   -2.2024   -1.7372   -0.0701 C   0  0  2  0  0  0  0  0  0  0  0  0
   -2.9344   -0.9734    1.0351 C   0  0  0  0  0  0  0  0  0  0  0  0
   -2.5905   -1.7097    2.3178 C   0  0  0  0  0  0  0  0  0  0  0  0
   -1.2418   -2.3143    2.0067 C   0  0  0  0  0  0  0  0  0  0  0  0
   -1.4080   -2.7823    0.6302 N   0  0  0  0  0  0  0  0  0  0  0  0
    3.2937    4.9537   -0.5962 H   0  0  0  0  0  0  0  0  0  0  0  0
    1.5428    2.2779    0.5951 H   0  0  0  0  0  0  0  0  0  0  0  0
    4.1034    1.6696    0.4954 H   0  0  0  0  0  0  0  0  0  0  0  0
    3.7326    0.6792   -0.8932 H   0  0  0  0  0  0  0  0  0  0  0  0
    2.8610    1.2039    2.7372 H   0  0  0  0  0  0  0  0  0  0  0  0
    2.3441   -0.6623    4.2724 H   0  0  0  0  0  0  0  0  0  0  0  0
    2.0427   -3.9847    3.1224 H   0  0  0  0  0  0  0  0  0  0  0  0
    2.4790   -3.4238    0.9759 H   0  0  0  0  0  0  0  0  0  0  0  0
    2.9884   -1.5815   -0.5622 H   0  0  0  0  0  0  0  0  0  0  0  0
    1.0707    0.3285   -1.1616 H   0  0  0  0  0  0  0  0  0  0  0  0
   -0.4099    0.5152   -3.0970 H   0  0  0  0  0  0  0  0  0  0  0  0
   -2.2051    2.9463   -2.6304 H   0  0  0  0  0  0  0  0  0  0  0  0
   -1.6605    2.2472   -4.1572 H   0  0  0  0  0  0  0  0  0  0  0  0
   -3.2036    0.4038   -3.9521 H   0  0  0  0  0  0  0  0  0  0  0  0
   -4.1747    1.7445   -3.3096 H   0  0  0  0  0  0  0  0  0  0  0  0
   -3.5906    1.1546   -1.0124 H   0  0  0  0  0  0  0  0  0  0  0  0
   -3.8115   -0.4432   -1.7801 H   0  0  0  0  0  0  0  0  0  0  0  0
   -2.8996   -2.2409   -0.7473 H   0  0  0  0  0  0  0  0  0  0  0  0
   -2.5908    0.0649    1.1102 H   0  0  0  0  0  0  0  0  0  0  0  0
   -4.0176   -0.9620    0.8761 H   0  0  0  0  0  0  0  0  0  0  0  0
   -2.5631   -1.0422    3.1840 H   0  0  0  0  0  0  0  0  0  0  0  0
   -3.3311   -2.4950    2.5132 H   0  0  0  0  0  0  0  0  0  0  0  0
   -0.9866   -3.1343    2.6831 H   0  0  0  0  0  0  0  0  0  0  0  0
   -0.4589   -1.5506    2.0613 H   0  0  0  0  0  0  0  0  0  0  0  0
   -0.4873   -2.8350    0.1813 H   0  0  0  0  0  0  0  0  0  0  0  0
  1  2  2  0  0  0  0
  2  3  1  0  0  0  0
  2  4  1  0  0  0  0
  4  5  1  0  0  0  0
  5  6  1  0  0  0  0
  6  7  2  0  0  0  0
  7  8  1  0  0  0  0
  8  9  2  0  0  0  0
  9 10  1  0  0  0  0
  9 11  1  0  0  0  0
 11 12  2  0  0  0  0
  4 13  1  0  0  0  0
 13 14  1  0  0  0  0
 14 15  2  0  0  0  0
 14 16  1  0  0  0  0
 16 17  1  0  0  0  0
 17 18  1  0  0  0  0
 18 19  1  0  0  0  0
 19 20  1  0  0  0  0
 20 21  1  0  0  0  0
 21 22  2  0  0  0  0
 21 23  1  0  0  0  0
 23 24  1  0  0  0  0
 24 25  1  0  0  0  0
 25 26  1  0  0  0  0
 26 27  1  0  0  0  0
  6 12  1  0  0  0  0
 16 20  1  0  0  0  0
 23 27  1  0  0  0  0
  3 28  1  0  0  0  0
  4 29  1  0  0  0  0
  5 30  1  0  0  0  0
  5 31  1  0  0  0  0
  7 32  1  0  0  0  0
  8 33  1  0  0  0  0
 10 34  1  0  0  0  0
 11 35  1  0  0  0  0
 12 36  1  0  0  0  0
 13 37  1  0  0  0  0
 16 38  1  0  0  0  0
 17 39  1  0  0  0  0
 17 40  1  0  0  0  0
 18 41  1  0  0  0  0
 18 42  1  0  0  0  0
 19 43  1  0  0  0  0
 19 44  1  0  0  0  0
 23 45  1  0  0  0  0
 24 46  1  0  0  0  0
 24 47  1  0  0  0  0
 25 48  1  0  0  0  0
 25 49  1  0  0  0  0
 26 50  1  0  0  0  0
 26 51  1  0  0  0  0
 27 52  1  0  0  0  0
M  END
$$$$
PPY.sdf
  PyMOL2.5          3D                             0

 52 54  0  0  1  0  0  0  0  0999 V2000
    2.0953    4.0397    1.9577 O   0  0  0  0  0  0  0  0  0  0  0  0
    1.6507    3.1403    1.2604 C   0  0  0  0  0  0  0  0  0  0  0  0
    1.7507    3.2236   -0.0859 O   0  0  0  0  0  0  0  0  0  0  0  0
    0.9981    1.8480    1.7643 C   0  0  2  0  0  0  0  0  0  0  0  0
    1.9537    1.0970    2.7069 C   0  0  0  0  0  0  0  0  0  0  0  0
    3.1626    0.4888    2.0272 C   0  0  0  0  0  0  0  0  0  0  0  0
    3.1319   -0.8426    1.5833 C   0  0  0  0  0  0  0  0  0  0  0  0
    4.2353   -1.4014    0.9349 C   0  0  0  0  0  0  0  0  0  0  0  0
    5.3717   -0.6267    0.7303 C   0  0  0  0  0  0  0  0  0  0  0  0
    6.4714   -1.1298    0.1016 O   0  0  0  0  0  0  0  0  0  0  0  0
    5.4224    0.6913    1.1662 C   0  0  0  0  0  0  0  0  0  0  0  0
    4.3216    1.2490    1.8177 C   0  0  0  0  0  0  0  0  0  0  0  0
    0.5444    0.9985    0.6541 N   0  0  0  0  0  0  0  0  0  0  0  0
   -0.7256    1.1522    0.1317 C   0  0  0  0  0  0  0  0  0  0  0  0
   -1.5819    1.8474    0.6699 O   0  0  0  0  0  0  0  0  0  0  0  0
   -0.9674    0.3539   -1.1703 C   0  0  2  0  0  0  0  0  0  0  0  0
   -0.2546    1.0170   -2.3520 C   0  0  0  0  0  0  0  0  0  0  0  0
   -1.2885    2.0213   -2.8528 C   0  0  0  0  0  0  0  0  0  0  0  0
   -2.6056    1.2818   -2.6737 C   0  0  0  0  0  0  0  0  0  0  0  0
   -2.3729    0.3566   -1.5787 N   0  0  0  0  0  0  0  0  0  0  0  0
   -3.4110   -0.3858   -1.0567 C   0  0  0  0  0  0  0  0  0  0  0  0
   -4.5594   -0.2759   -1.4985 O   0  0  0  0  0  0  0  0  0  0  0  0
   -3.0887   -1.3734    0.0925 C   0  0  2  0  0  0  0  0  0  0  0  0
   -2.3514   -2.6168   -0.4076 C   0  0  0  0  0  0  0  0  0  0  0  0
   -3.2574   -3.7882   -0.0620 C   0  0  0  0  0  0  0  0  0  0  0  0
   -4.6269   -3.1589    0.0547 C   0  0  0  0  0  0  0  0  0  0  0  0
   -4.3391   -1.8850    0.7100 N   0  0  0  0  0  0  0  0  0  0  0  0
    2.1688    4.0989   -0.2326 H   0  0  0  0  0  0  0  0  0  0  0  0
    0.1181    2.1619    2.3386 H   0  0  0  0  0  0  0  0  0  0  0  0
    1.3987    0.2941    3.2106 H   0  0  0  0  0  0  0  0  0  0  0  0
    2.2979    1.7637    3.5084 H   0  0  0  0  0  0  0  0  0  0  0  0
    2.2468   -1.4549    1.7463 H   0  0  0  0  0  0  0  0  0  0  0  0
    4.1913   -2.4340    0.6034 H   0  0  0  0  0  0  0  0  0  0  0  0
    6.3223   -2.0715   -0.0831 H   0  0  0  0  0  0  0  0  0  0  0  0
    6.3204    1.2819    1.0067 H   0  0  0  0  0  0  0  0  0  0  0  0
    4.3823    2.2788    2.1656 H   0  0  0  0  0  0  0  0  0  0  0  0
    1.2760    0.7219    0.0090 H   0  0  0  0  0  0  0  0  0  0  0  0
   -0.6155   -0.6694   -1.0166 H   0  0  0  0  0  0  0  0  0  0  0  0
   -0.0628    0.2726   -3.1348 H   0  0  0  0  0  0  0  0  0  0  0  0
    0.6940    1.4976   -2.0991 H   0  0  0  0  0  0  0  0  0  0  0  0
   -1.2717    2.9188   -2.2228 H   0  0  0  0  0  0  0  0  0  0  0  0
   -1.1174    2.3297   -3.8878 H   0  0  0  0  0  0  0  0  0  0  0  0
   -2.8578    0.6944   -3.5635 H   0  0  0  0  0  0  0  0  0  0  0  0
   -3.4388    1.9536   -2.4454 H   0  0  0  0  0  0  0  0  0  0  0  0
   -2.5199   -0.8475    0.8642 H   0  0  0  0  0  0  0  0  0  0  0  0
   -1.3788   -2.7356    0.0818 H   0  0  0  0  0  0  0  0  0  0  0  0
   -2.1844   -2.5856   -1.4905 H   0  0  0  0  0  0  0  0  0  0  0  0
   -2.9532   -4.2249    0.8974 H   0  0  0  0  0  0  0  0  0  0  0  0
   -3.2210   -4.5767   -0.8196 H   0  0  0  0  0  0  0  0  0  0  0  0
   -5.0701   -2.9985   -0.9350 H   0  0  0  0  0  0  0  0  0  0  0  0
   -5.3124   -3.7699    0.6484 H   0  0  0  0  0  0  0  0  0  0  0  0
   -5.0921   -1.2213    0.4995 H   0  0  0  0  0  0  0  0  0  0  0  0
  1  2  2  0  0  0  0
  2  3  1  0  0  0  0
  2  4  1  0  0  0  0
  4  5  1  0  0  0  0
  5  6  1  0  0  0  0
  6  7  2  0  0  0  0
  7  8  1  0  0  0  0
  8  9  2  0  0  0  0
  9 10  1  0  0  0  0
  9 11  1  0  0  0  0
 11 12  2  0  0  0  0
  4 13  1  0  0  0  0
 13 14  1  0  0  0  0
 14 15  2  0  0  0  0
 14 16  1  0  0  0  0
 16 17  1  0  0  0  0
 17 18  1  0  0  0  0
 18 19  1  0  0  0  0
 19 20  1  0  0  0  0
 20 21  1  0  0  0  0
 21 22  2  0  0  0  0
 21 23  1  0  0  0  0
 23 24  1  0  0  0  0
 24 25  1  0  0  0  0
 25 26  1  0  0  0  0
 26 27  1  0  0  0  0
  6 12  1  0  0  0  0
 16 20  1  0  0  0  0
 23 27  1  0  0  0  0
  3 28  1  0  0  0  0
  4 29  1  0  0  0  0
  5 30  1  0  0  0  0
  5 31  1  0  0  0  0
  7 32  1  0  0  0  0
  8 33  1  0  0  0  0
 10 34  1  0  0  0  0
 11 35  1  0  0  0  0
 12 36  1  0  0  0  0
 13 37  1  0  0  0  0
 16 38  1  0  0  0  0
 17 39  1  0  0  0  0
 17 40  1  0  0  0  0
 18 41  1  0  0  0  0
 18 42  1  0  0  0  0
 19 43  1  0  0  0  0
 19 44  1  0  0  0  0
 23 45  1  0  0  0  0
 24 46  1  0  0  0  0
 24 47  1  0  0  0  0
 25 48  1  0  0  0  0
 25 49  1  0  0  0  0
 26 50  1  0  0  0  0
 26 51  1  0  0  0  0
 27 52  1  0  0  0  0
M  END
$$$$
PPY.sdf
  PyMOL2.5          3D                             0

 52 54  0  0  1  0  0  0  0  0999 V2000
    2.6728    0.3862   -3.7841 O   0  0  0  0  0  0  0  0  0  0  0  0
    3.1346    0.8837   -2.7681 C   0  0  0  0  0  0  0  0  0  0  0  0
    4.3768    1.4125   -2.7798 O   0  0  0  0  0  0  0  0  0  0  0  0
    2.4717    0.9540   -1.3924 C   0  0  2  0  0  0  0  0  0  0  0  0
    3.0449   -0.1685   -0.5152 C   0  0  0  0  0  0  0  0  0  0  0  0
    2.5063   -0.2822    0.8978 C   0  0  0  0  0  0  0  0  0  0  0  0
    2.5488   -1.5336    1.5367 C   0  0  0  0  0  0  0  0  0  0  0  0
    2.0991   -1.6862    2.8504 C   0  0  0  0  0  0  0  0  0  0  0  0
    1.6071   -0.5822    3.5352 C   0  0  0  0  0  0  0  0  0  0  0  0
    1.1496   -0.6846    4.8151 O   0  0  0  0  0  0  0  0  0  0  0  0
    1.5672    0.6665    2.9303 C   0  0  0  0  0  0  0  0  0  0  0  0
    2.0230    0.8191    1.6186 C   0  0  0  0  0  0  0  0  0  0  0  0
    1.0267    0.8248   -1.5585 N   0  0  0  0  0  0  0  0  0  0  0  0
    0.2330    1.9088   -1.8626 C   0  0  0  0  0  0  0  0  0  0  0  0
    0.6820    3.0508   -1.9262 O   0  0  0  0  0  0  0  0  0  0  0  0
   -1.2275    1.5427   -2.2209 C   0  0  2  0  0  0  0  0  0  0  0  0
   -2.1278    2.7742   -2.3403 C   0  0  0  0  0  0  0  0  0  0  0  0
   -2.6608    2.9472   -0.9228 C   0  0  0  0  0  0  0  0  0  0  0  0
   -2.8793    1.5134   -0.4649 C   0  0  0  0  0  0  0  0  0  0  0  0
   -1.8668    0.7404   -1.1680 N   0  0  0  0  0  0  0  0  0  0  0  0
   -1.6687   -0.6206   -1.0754 C   0  0  0  0  0  0  0  0  0  0  0  0
   -0.8594   -1.1947   -1.8134 O   0  0  0  0  0  0  0  0  0  0  0  0
   -2.4880   -1.3974   -0.0178 C   0  0  2  0  0  0  0  0  0  0  0  0
   -2.0324   -1.1048    1.4113 C   0  0  0  0  0  0  0  0  0  0  0  0
   -1.7021   -2.4643    2.0022 C   0  0  0  0  0  0  0  0  0  0  0  0
   -1.3233   -3.2829    0.7899 C   0  0  0  0  0  0  0  0  0  0  0  0
   -2.3104   -2.8620   -0.2038 N   0  0  0  0  0  0  0  0  0  0  0  0
    4.6593    1.3274   -3.7151 H   0  0  0  0  0  0  0  0  0  0  0  0
    2.6869    1.9437   -0.9739 H   0  0  0  0  0  0  0  0  0  0  0  0
    2.8714   -1.1261   -1.0267 H   0  0  0  0  0  0  0  0  0  0  0  0
    4.1342   -0.0519   -0.4407 H   0  0  0  0  0  0  0  0  0  0  0  0
    2.9370   -2.4033    1.0097 H   0  0  0  0  0  0  0  0  0  0  0  0
    2.1404   -2.6659    3.3152 H   0  0  0  0  0  0  0  0  0  0  0  0
    1.2755   -1.5991    5.1163 H   0  0  0  0  0  0  0  0  0  0  0  0
    1.1876    1.5240    3.4787 H   0  0  0  0  0  0  0  0  0  0  0  0
    1.9889    1.8124    1.1780 H   0  0  0  0  0  0  0  0  0  0  0  0
    0.6543   -0.0912   -1.8179 H   0  0  0  0  0  0  0  0  0  0  0  0
   -1.2046    0.9838   -3.1640 H   0  0  0  0  0  0  0  0  0  0  0  0
   -2.9642    2.5556   -3.0160 H   0  0  0  0  0  0  0  0  0  0  0  0
   -1.6234    3.6714   -2.7091 H   0  0  0  0  0  0  0  0  0  0  0  0
   -3.5752    3.5452   -0.8803 H   0  0  0  0  0  0  0  0  0  0  0  0
   -1.9037    3.4328   -0.2956 H   0  0  0  0  0  0  0  0  0  0  0  0
   -2.7761    1.4062    0.6169 H   0  0  0  0  0  0  0  0  0  0  0  0
   -3.8642    1.1449   -0.7712 H   0  0  0  0  0  0  0  0  0  0  0  0
   -3.5485   -1.1660   -0.1593 H   0  0  0  0  0  0  0  0  0  0  0  0
   -2.8155   -0.6145    1.9988 H   0  0  0  0  0  0  0  0  0  0  0  0
   -1.1427   -0.4653    1.4295 H   0  0  0  0  0  0  0  0  0  0  0  0
   -0.9026   -2.4131    2.7453 H   0  0  0  0  0  0  0  0  0  0  0  0
   -2.5898   -2.8872    2.4889 H   0  0  0  0  0  0  0  0  0  0  0  0
   -1.3814   -4.3576    0.9822 H   0  0  0  0  0  0  0  0  0  0  0  0
   -0.3081   -3.0409    0.4541 H   0  0  0  0  0  0  0  0  0  0  0  0
   -1.9327   -3.0257   -1.1426 H   0  0  0  0  0  0  0  0  0  0  0  0
  1  2  2  0  0  0  0
  2  3  1  0  0  0  0
  2  4  1  0  0  0  0
  4  5  1  0  0  0  0
  5  6  1  0  0  0  0
  6  7  2  0  0  0  0
  7  8  1  0  0  0  0
  8  9  2  0  0  0  0
  9 10  1  0  0  0  0
  9 11  1  0  0  0  0
 11 12  2  0  0  0  0
  4 13  1  0  0  0  0
 13 14  1  0  0  0  0
 14 15  2  0  0  0  0
 14 16  1  0  0  0  0
 16 17  1  0  0  0  0
 17 18  1  0  0  0  0
 18 19  1  0  0  0  0
 19 20  1  0  0  0  0
 20 21  1  0  0  0  0
 21 22  2  0  0  0  0
 21 23  1  0  0  0  0
 23 24  1  0  0  0  0
 24 25  1  0  0  0  0
 25 26  1  0  0  0  0
 26 27  1  0  0  0  0
  6 12  1  0  0  0  0
 16 20  1  0  0  0  0
 23 27  1  0  0  0  0
  3 28  1  0  0  0  0
  4 29  1  0  0  0  0
  5 30  1  0  0  0  0
  5 31  1  0  0  0  0
  7 32  1  0  0  0  0
  8 33  1  0  0  0  0
 10 34  1  0  0  0  0
 11 35  1  0  0  0  0
 12 36  1  0  0  0  0
 13 37  1  0  0  0  0
 16 38  1  0  0  0  0
 17 39  1  0  0  0  0
 17 40  1  0  0  0  0
 18 41  1  0  0  0  0
 18 42  1  0  0  0  0
 19 43  1  0  0  0  0
 19 44  1  0  0  0  0
 23 45  1  0  0  0  0
 24 46  1  0  0  0  0
 24 47  1  0  0  0  0
 25 48  1  0  0  0  0
 25 49  1  0  0  0  0
 26 50  1  0  0  0  0
 26 51  1  0  0  0  0
 27 52  1  0  0  0  0
M  END
$$$$
PPY.sdf
  PyMOL2.5          3D                             0

 52 54  0  0  1  0  0  0  0  0999 V2000
    1.8599   -1.8248   -1.3802 O   0  0  0  0  0  0  0  0  0  0  0  0
    2.4135   -0.7823   -1.0614 C   0  0  0  0  0  0  0  0  0  0  0  0
    3.7493   -0.6574   -1.2007 O   0  0  0  0  0  0  0  0  0  0  0  0
    1.7449    0.4670   -0.4973 C   0  0  2  0  0  0  0  0  0  0  0  0
    1.4146    0.2657    0.9890 C   0  0  0  0  0  0  0  0  0  0  0  0
    2.6358    0.1576    1.8716 C   0  0  0  0  0  0  0  0  0  0  0  0
    3.0303   -1.0821    2.3956 C   0  0  0  0  0  0  0  0  0  0  0  0
    4.1665   -1.1810    3.2018 C   0  0  0  0  0  0  0  0  0  0  0  0
    4.9082   -0.0381    3.4827 C   0  0  0  0  0  0  0  0  0  0  0  0
    6.0236   -0.0903    4.2656 O   0  0  0  0  0  0  0  0  0  0  0  0
    4.5319    1.1979    2.9722 C   0  0  0  0  0  0  0  0  0  0  0  0
    3.3962    1.2975    2.1678 C   0  0  0  0  0  0  0  0  0  0  0  0
    0.5273    0.7124   -1.2712 N   0  0  0  0  0  0  0  0  0  0  0  0
   -0.0713    1.9586   -1.2723 C   0  0  0  0  0  0  0  0  0  0  0  0
    0.4991    2.9678   -0.8642 O   0  0  0  0  0  0  0  0  0  0  0  0
   -1.4187    2.0061   -2.0134 C   0  0  2  0  0  0  0  0  0  0  0  0
   -2.3225    3.1909   -1.7160 C   0  0  0  0  0  0  0  0  0  0  0  0
   -3.6934    2.7282   -2.2252 C   0  0  0  0  0  0  0  0  0  0  0  0
   -3.5421    1.2323   -2.5353 C   0  0  0  0  0  0  0  0  0  0  0  0
   -2.2932    0.8373   -1.9070 N   0  0  0  0  0  0  0  0  0  0  0  0
   -2.4657    0.2836   -0.6184 C   0  0  0  0  0  0  0  0  0  0  0  0
   -2.2239    0.8979    0.4160 O   0  0  0  0  0  0  0  0  0  0  0  0
   -2.8713   -1.2045   -0.6632 C   0  0  2  0  0  0  0  0  0  0  0  0
   -3.0895   -1.8224    0.7183 C   0  0  0  0  0  0  0  0  0  0  0  0
   -1.9340   -2.7931    0.8934 C   0  0  0  0  0  0  0  0  0  0  0  0
   -1.6165   -3.2058   -0.5274 C   0  0  0  0  0  0  0  0  0  0  0  0
   -1.7448   -1.9557   -1.2671 N   0  0  0  0  0  0  0  0  0  0  0  0
    4.0401   -1.5221   -1.5554 H   0  0  0  0  0  0  0  0  0  0  0  0
    2.4120    1.3247   -0.6438 H   0  0  0  0  0  0  0  0  0  0  0  0
    0.8018    1.0986    1.3585 H   0  0  0  0  0  0  0  0  0  0  0  0
    0.7899   -0.6285    1.1152 H   0  0  0  0  0  0  0  0  0  0  0  0
    2.4533   -1.9790    2.1794 H   0  0  0  0  0  0  0  0  0  0  0  0
    4.4531   -2.1496    3.5980 H   0  0  0  0  0  0  0  0  0  0  0  0
    6.1479   -1.0058    4.5631 H   0  0  0  0  0  0  0  0  0  0  0  0
    5.1187    2.0829    3.2003 H   0  0  0  0  0  0  0  0  0  0  0  0
    3.1061    2.2706    1.7753 H   0  0  0  0  0  0  0  0  0  0  0  0
   -0.0610   -0.0959   -1.4755 H   0  0  0  0  0  0  0  0  0  0  0  0
   -1.1389    2.0560   -3.0773 H   0  0  0  0  0  0  0  0  0  0  0  0
   -1.9842    4.1052   -2.2137 H   0  0  0  0  0  0  0  0  0  0  0  0
   -2.3685    3.4009   -0.6411 H   0  0  0  0  0  0  0  0  0  0  0  0
   -4.0038    3.2800   -3.1186 H   0  0  0  0  0  0  0  0  0  0  0  0
   -4.4551    2.8931   -1.4552 H   0  0  0  0  0  0  0  0  0  0  0  0
   -4.4014    0.6586   -2.1762 H   0  0  0  0  0  0  0  0  0  0  0  0
   -3.4358    1.0756   -3.6146 H   0  0  0  0  0  0  0  0  0  0  0  0
   -3.7797   -1.3200   -1.2639 H   0  0  0  0  0  0  0  0  0  0  0  0
   -3.1350   -1.1046    1.5421 H   0  0  0  0  0  0  0  0  0  0  0  0
   -4.0307   -2.3865    0.7181 H   0  0  0  0  0  0  0  0  0  0  0  0
   -1.0773   -2.2806    1.3469 H   0  0  0  0  0  0  0  0  0  0  0  0
   -2.1999   -3.6434    1.5281 H   0  0  0  0  0  0  0  0  0  0  0  0
   -2.3430   -3.9414   -0.8915 H   0  0  0  0  0  0  0  0  0  0  0  0
   -0.6122   -3.6279   -0.6199 H   0  0  0  0  0  0  0  0  0  0  0  0
   -1.9106   -2.1242   -2.2575 H   0  0  0  0  0  0  0  0  0  0  0  0
  1  2  2  0  0  0  0
  2  3  1  0  0  0  0
  2  4  1  0  0  0  0
  4  5  1  0  0  0  0
  5  6  1  0  0  0  0
  6  7  2  0  0  0  0
  7  8  1  0  0  0  0
  8  9  2  0  0  0  0
  9 10  1  0  0  0  0
  9 11  1  0  0  0  0
 11 12  2  0  0  0  0
  4 13  1  0  0  0  0
 13 14  1  0  0  0  0
 14 15  2  0  0  0  0
 14 16  1  0  0  0  0
 16 17  1  0  0  0  0
 17 18  1  0  0  0  0
 18 19  1  0  0  0  0
 19 20  1  0  0  0  0
 20 21  1  0  0  0  0
 21 22  2  0  0  0  0
 21 23  1  0  0  0  0
 23 24  1  0  0  0  0
 24 25  1  0  0  0  0
 25 26  1  0  0  0  0
 26 27  1  0  0  0  0
  6 12  1  0  0  0  0
 16 20  1  0  0  0  0
 23 27  1  0  0  0  0
  3 28  1  0  0  0  0
  4 29  1  0  0  0  0
  5 30  1  0  0  0  0
  5 31  1  0  0  0  0
  7 32  1  0  0  0  0
  8 33  1  0  0  0  0
 10 34  1  0  0  0  0
 11 35  1  0  0  0  0
 12 36  1  0  0  0  0
 13 37  1  0  0  0  0
 16 38  1  0  0  0  0
 17 39  1  0  0  0  0
 17 40  1  0  0  0  0
 18 41  1  0  0  0  0
 18 42  1  0  0  0  0
 19 43  1  0  0  0  0
 19 44  1  0  0  0  0
 23 45  1  0  0  0  0
 24 46  1  0  0  0  0
 24 47  1  0  0  0  0
 25 48  1  0  0  0  0
 25 49  1  0  0  0  0
 26 50  1  0  0  0  0
 26 51  1  0  0  0  0
 27 52  1  0  0  0  0
M  END
$$$$
PPY.sdf
  PyMOL2.5          3D                             0

 52 54  0  0  1  0  0  0  0  0999 V2000
    1.1307   -2.2288   -0.1634 O   0  0  0  0  0  0  0  0  0  0  0  0
    1.6761   -1.4434    0.6041 C   0  0  0  0  0  0  0  0  0  0  0  0
    2.1954   -1.8944    1.7590 O   0  0  0  0  0  0  0  0  0  0  0  0
    1.9115    0.0466    0.3172 C   0  0  2  0  0  0  0  0  0  0  0  0
    1.9859    0.9418    1.5676 C   0  0  0  0  0  0  0  0  0  0  0  0
    3.4080    1.1743    2.0347 C   0  0  0  0  0  0  0  0  0  0  0  0
    4.2319    2.0895    1.3621 C   0  0  0  0  0  0  0  0  0  0  0  0
    5.5466    2.2969    1.7810 C   0  0  0  0  0  0  0  0  0  0  0  0
    6.0403    1.5940    2.8726 C   0  0  0  0  0  0  0  0  0  0  0  0
    7.3300    1.8278    3.2482 O   0  0  0  0  0  0  0  0  0  0  0  0
    5.2398    0.6849    3.5556 C   0  0  0  0  0  0  0  0  0  0  0  0
    3.9240    0.4767    3.1355 C   0  0  0  0  0  0  0  0  0  0  0  0
    0.8823    0.4766   -0.6478 N   0  0  0  0  0  0  0  0  0  0  0  0
   -0.4427    0.5952   -0.2592 C   0  0  0  0  0  0  0  0  0  0  0  0
   -0.7919    0.5357    0.9152 O   0  0  0  0  0  0  0  0  0  0  0  0
   -1.4227    0.7898   -1.4377 C   0  0  2  0  0  0  0  0  0  0  0  0
   -1.2795    2.1972   -2.0241 C   0  0  0  0  0  0  0  0  0  0  0  0
   -2.2766    3.0107   -1.2043 C   0  0  0  0  0  0  0  0  0  0  0  0
   -3.4342    2.0434   -1.0127 C   0  0  0  0  0  0  0  0  0  0  0  0
   -2.8262    0.7251   -1.0321 N   0  0  0  0  0  0  0  0  0  0  0  0
   -3.5916   -0.4010   -0.7798 C   0  0  0  0  0  0  0  0  0  0  0  0
   -4.8024   -0.2946   -0.5672 O   0  0  0  0  0  0  0  0  0  0  0  0
   -2.8700   -1.7737   -0.8464 C   0  0  2  0  0  0  0  0  0  0  0  0
   -2.7524   -2.2623   -2.2911 C   0  0  0  0  0  0  0  0  0  0  0  0
   -3.5906   -3.5305   -2.3579 C   0  0  0  0  0  0  0  0  0  0  0  0
   -4.4839   -3.4493   -1.1389 C   0  0  0  0  0  0  0  0  0  0  0  0
   -3.6236   -2.8329   -0.1273 N   0  0  0  0  0  0  0  0  0  0  0  0
    1.9564   -2.8449    1.7783 H   0  0  0  0  0  0  0  0  0  0  0  0
    2.8535    0.0976   -0.2431 H   0  0  0  0  0  0  0  0  0  0  0  0
    1.5547    1.9303    1.3581 H   0  0  0  0  0  0  0  0  0  0  0  0
    1.3910    0.5278    2.3914 H   0  0  0  0  0  0  0  0  0  0  0  0
    3.8535    2.6517    0.5114 H   0  0  0  0  0  0  0  0  0  0  0  0
    6.1824    3.0075    1.2607 H   0  0  0  0  0  0  0  0  0  0  0  0
    7.5224    1.2945    4.0367 H   0  0  0  0  0  0  0  0  0  0  0  0
    5.6164    0.1327    4.4105 H   0  0  0  0  0  0  0  0  0  0  0  0
    3.3019   -0.2359    3.6738 H   0  0  0  0  0  0  0  0  0  0  0  0
    1.0450    0.1891   -1.6052 H   0  0  0  0  0  0  0  0  0  0  0  0
   -1.2145    0.0223   -2.1890 H   0  0  0  0  0  0  0  0  0  0  0  0
   -1.5906    2.1945   -3.0761 H   0  0  0  0  0  0  0  0  0  0  0  0
   -0.2681    2.6096   -1.9674 H   0  0  0  0  0  0  0  0  0  0  0  0
   -1.8373    3.2698   -0.2335 H   0  0  0  0  0  0  0  0  0  0  0  0
   -2.5806    3.9373   -1.6989 H   0  0  0  0  0  0  0  0  0  0  0  0
   -3.9743    2.2086   -0.0755 H   0  0  0  0  0  0  0  0  0  0  0  0
   -4.1434    2.1018   -1.8461 H   0  0  0  0  0  0  0  0  0  0  0  0
   -1.8885   -1.6809   -0.3745 H   0  0  0  0  0  0  0  0  0  0  0  0
   -3.1305   -1.5253   -3.0087 H   0  0  0  0  0  0  0  0  0  0  0  0
   -1.7129   -2.4862   -2.5549 H   0  0  0  0  0  0  0  0  0  0  0  0
   -4.1607   -3.6005   -3.2890 H   0  0  0  0  0  0  0  0  0  0  0  0
   -2.9377   -4.4097   -2.2942 H   0  0  0  0  0  0  0  0  0  0  0  0
   -5.3617   -2.8226   -1.3312 H   0  0  0  0  0  0  0  0  0  0  0  0
   -4.8360   -4.4348   -0.8200 H   0  0  0  0  0  0  0  0  0  0  0  0
   -2.9545   -3.5295    0.1982 H   0  0  0  0  0  0  0  0  0  0  0  0
  1  2  2  0  0  0  0
  2  3  1  0  0  0  0
  2  4  1  0  0  0  0
  4  5  1  0  0  0  0
  5  6  1  0  0  0  0
  6  7  2  0  0  0  0
  7  8  1  0  0  0  0
  8  9  2  0  0  0  0
  9 10  1  0  0  0  0
  9 11  1  0  0  0  0
 11 12  2  0  0  0  0
  4 13  1  0  0  0  0
 13 14  1  0  0  0  0
 14 15  2  0  0  0  0
 14 16  1  0  0  0  0
 16 17  1  0  0  0  0
 17 18  1  0  0  0  0
 18 19  1  0  0  0  0
 19 20  1  0  0  0  0
 20 21  1  0  0  0  0
 21 22  2  0  0  0  0
 21 23  1  0  0  0  0
 23 24  1  0  0  0  0
 24 25  1  0  0  0  0
 25 26  1  0  0  0  0
 26 27  1  0  0  0  0
  6 12  1  0  0  0  0
 16 20  1  0  0  0  0
 23 27  1  0  0  0  0
  3 28  1  0  0  0  0
  4 29  1  0  0  0  0
  5 30  1  0  0  0  0
  5 31  1  0  0  0  0
  7 32  1  0  0  0  0
  8 33  1  0  0  0  0
 10 34  1  0  0  0  0
 11 35  1  0  0  0  0
 12 36  1  0  0  0  0
 13 37  1  0  0  0  0
 16 38  1  0  0  0  0
 17 39  1  0  0  0  0
 17 40  1  0  0  0  0
 18 41  1  0  0  0  0
 18 42  1  0  0  0  0
 19 43  1  0  0  0  0
 19 44  1  0  0  0  0
 23 45  1  0  0  0  0
 24 46  1  0  0  0  0
 24 47  1  0  0  0  0
 25 48  1  0  0  0  0
 25 49  1  0  0  0  0
 26 50  1  0  0  0  0
 26 51  1  0  0  0  0
 27 52  1  0  0  0  0
M  END
$$$$
PPY.sdf
  PyMOL2.5          3D                             0

 52 54  0  0  1  0  0  0  0  0999 V2000
    1.5805    3.3339    0.9110 O   0  0  0  0  0  0  0  0  0  0  0  0
    1.8240    2.2795    1.4837 C   0  0  0  0  0  0  0  0  0  0  0  0
    1.9155    2.2327    2.8258 O   0  0  0  0  0  0  0  0  0  0  0  0
    2.0692    0.9352    0.8028 C   0  0  2  0  0  0  0  0  0  0  0  0
    3.5251    0.8380    0.3326 C   0  0  0  0  0  0  0  0  0  0  0  0
    4.5249    0.7183    1.4577 C   0  0  0  0  0  0  0  0  0  0  0  0
    4.6222   -0.4695    2.1978 C   0  0  0  0  0  0  0  0  0  0  0  0
    5.5373   -0.5789    3.2472 C   0  0  0  0  0  0  0  0  0  0  0  0
    6.3572    0.5013    3.5552 C   0  0  0  0  0  0  0  0  0  0  0  0
    7.2635    0.4383    4.5719 O   0  0  0  0  0  0  0  0  0  0  0  0
    6.2770    1.6844    2.8316 C   0  0  0  0  0  0  0  0  0  0  0  0
    5.3621    1.7947    1.7835 C   0  0  0  0  0  0  0  0  0  0  0  0
    1.1612    0.8747   -0.3508 N   0  0  0  0  0  0  0  0  0  0  0  0
   -0.1109    0.3461   -0.2177 C   0  0  0  0  0  0  0  0  0  0  0  0
   -0.4879   -0.2091    0.8113 O   0  0  0  0  0  0  0  0  0  0  0  0
   -1.0177    0.5953   -1.4455 C   0  0  2  0  0  0  0  0  0  0  0  0
   -1.6332    1.9919   -1.3785 C   0  0  0  0  0  0  0  0  0  0  0  0
   -2.8966    1.7665   -0.5543 C   0  0  0  0  0  0  0  0  0  0  0  0
   -3.3682    0.3816   -0.9861 C   0  0  0  0  0  0  0  0  0  0  0  0
   -2.1720   -0.2932   -1.4672 N   0  0  0  0  0  0  0  0  0  0  0  0
   -2.0362   -1.5892   -1.9093 C   0  0  0  0  0  0  0  0  0  0  0  0
   -0.9384   -2.0007   -2.3068 O   0  0  0  0  0  0  0  0  0  0  0  0
   -3.2556   -2.5230   -1.9935 C   0  0  2  0  0  0  0  0  0  0  0  0
   -4.2508   -2.1564   -3.0903 C   0  0  0  0  0  0  0  0  0  0  0  0
   -5.6196   -2.2485   -2.4257 C   0  0  0  0  0  0  0  0  0  0  0  0
   -5.3680   -3.0337   -1.1520 C   0  0  0  0  0  0  0  0  0  0  0  0
   -4.0484   -2.5649   -0.7482 N   0  0  0  0  0  0  0  0  0  0  0  0
    1.7388    3.1474    3.1263 H   0  0  0  0  0  0  0  0  0  0  0  0
    1.8132    0.1286    1.4985 H   0  0  0  0  0  0  0  0  0  0  0  0
    3.6449   -0.0363   -0.3218 H   0  0  0  0  0  0  0  0  0  0  0  0
    3.7777    1.7044   -0.2939 H   0  0  0  0  0  0  0  0  0  0  0  0
    3.9833   -1.3187    1.9620 H   0  0  0  0  0  0  0  0  0  0  0  0
    5.5931   -1.5069    3.8071 H   0  0  0  0  0  0  0  0  0  0  0  0
    7.2008   -0.4382    4.9854 H   0  0  0  0  0  0  0  0  0  0  0  0
    6.9249    2.5190    3.0833 H   0  0  0  0  0  0  0  0  0  0  0  0
    5.3099    2.7278    1.2270 H   0  0  0  0  0  0  0  0  0  0  0  0
    1.2921    1.5851   -1.0616 H   0  0  0  0  0  0  0  0  0  0  0  0
   -0.4203    0.4623   -2.3550 H   0  0  0  0  0  0  0  0  0  0  0  0
   -1.9112    2.3257   -2.3857 H   0  0  0  0  0  0  0  0  0  0  0  0
   -0.9801    2.7480   -0.9330 H   0  0  0  0  0  0  0  0  0  0  0  0
   -3.6553    2.5369   -0.7182 H   0  0  0  0  0  0  0  0  0  0  0  0
   -2.6480    1.7610    0.5138 H   0  0  0  0  0  0  0  0  0  0  0  0
   -4.0847    0.4510   -1.8091 H   0  0  0  0  0  0  0  0  0  0  0  0
   -3.8199   -0.1530   -0.1488 H   0  0  0  0  0  0  0  0  0  0  0  0
   -2.8719   -3.5349   -2.1832 H   0  0  0  0  0  0  0  0  0  0  0  0
   -4.1862   -2.8852   -3.9071 H   0  0  0  0  0  0  0  0  0  0  0  0
   -4.0887   -1.1654   -3.5257 H   0  0  0  0  0  0  0  0  0  0  0  0
   -6.3601   -2.7298   -3.0715 H   0  0  0  0  0  0  0  0  0  0  0  0
   -5.9839   -1.2420   -2.1865 H   0  0  0  0  0  0  0  0  0  0  0  0
   -6.1228   -2.8293   -0.3877 H   0  0  0  0  0  0  0  0  0  0  0  0
   -5.3520   -4.1114   -1.3519 H   0  0  0  0  0  0  0  0  0  0  0  0
   -3.6099   -3.1914   -0.0742 H   0  0  0  0  0  0  0  0  0  0  0  0
  1  2  2  0  0  0  0
  2  3  1  0  0  0  0
  2  4  1  0  0  0  0
  4  5  1  0  0  0  0
  5  6  1  0  0  0  0
  6  7  2  0  0  0  0
  7  8  1  0  0  0  0
  8  9  2  0  0  0  0
  9 10  1  0  0  0  0
  9 11  1  0  0  0  0
 11 12  2  0  0  0  0
  4 13  1  0  0  0  0
 13 14  1  0  0  0  0
 14 15  2  0  0  0  0
 14 16  1  0  0  0  0
 16 17  1  0  0  0  0
 17 18  1  0  0  0  0
 18 19  1  0  0  0  0
 19 20  1  0  0  0  0
 20 21  1  0  0  0  0
 21 22  2  0  0  0  0
 21 23  1  0  0  0  0
 23 24  1  0  0  0  0
 24 25  1  0  0  0  0
 25 26  1  0  0  0  0
 26 27  1  0  0  0  0
  6 12  1  0  0  0  0
 16 20  1  0  0  0  0
 23 27  1  0  0  0  0
  3 28  1  0  0  0  0
  4 29  1  0  0  0  0
  5 30  1  0  0  0  0
  5 31  1  0  0  0  0
  7 32  1  0  0  0  0
  8 33  1  0  0  0  0
 10 34  1  0  0  0  0
 11 35  1  0  0  0  0
 12 36  1  0  0  0  0
 13 37  1  0  0  0  0
 16 38  1  0  0  0  0
 17 39  1  0  0  0  0
 17 40  1  0  0  0  0
 18 41  1  0  0  0  0
 18 42  1  0  0  0  0
 19 43  1  0  0  0  0
 19 44  1  0  0  0  0
 23 45  1  0  0  0  0
 24 46  1  0  0  0  0
 24 47  1  0  0  0  0
 25 48  1  0  0  0  0
 25 49  1  0  0  0  0
 26 50  1  0  0  0  0
 26 51  1  0  0  0  0
 27 52  1  0  0  0  0
M  END
$$$$
PPY.sdf
  PyMOL2.5          3D                             0

 52 54  0  0  1  0  0  0  0  0999 V2000
    0.9712    2.9043    2.2133 O   0  0  0  0  0  0  0  0  0  0  0  0
    0.8324    1.9529    2.9688 C   0  0  0  0  0  0  0  0  0  0  0  0
    0.8533    2.1368    4.3047 O   0  0  0  0  0  0  0  0  0  0  0  0
    0.6398    0.4905    2.5649 C   0  0  2  0  0  0  0  0  0  0  0  0
    1.8686   -0.3590    2.9254 C   0  0  0  0  0  0  0  0  0  0  0  0
    3.1064   -0.0650    2.1048 C   0  0  0  0  0  0  0  0  0  0  0  0
    3.9876    0.9601    2.4777 C   0  0  0  0  0  0  0  0  0  0  0  0
    5.1112    1.2478    1.6992 C   0  0  0  0  0  0  0  0  0  0  0  0
    5.3550    0.5066    0.5481 C   0  0  0  0  0  0  0  0  0  0  0  0
    6.4372    0.7554   -0.2423 O   0  0  0  0  0  0  0  0  0  0  0  0
    4.4981   -0.5177    0.1667 C   0  0  0  0  0  0  0  0  0  0  0  0
    3.3759   -0.8054    0.9438 C   0  0  0  0  0  0  0  0  0  0  0  0
    0.3216    0.4352    1.1327 N   0  0  0  0  0  0  0  0  0  0  0  0
   -0.9855    0.5756    0.7055 C   0  0  0  0  0  0  0  0  0  0  0  0
   -1.9390    0.5558    1.4774 O   0  0  0  0  0  0  0  0  0  0  0  0
   -1.1224    0.7557   -0.8203 C   0  0  2  0  0  0  0  0  0  0  0  0
   -0.6656    2.1761   -1.1946 C   0  0  0  0  0  0  0  0  0  0  0  0
   -1.6670    2.6326   -2.2472 C   0  0  0  0  0  0  0  0  0  0  0  0
   -2.9534    1.9551   -1.8133 C   0  0  0  0  0  0  0  0  0  0  0  0
   -2.5052    0.6758   -1.3013 N   0  0  0  0  0  0  0  0  0  0  0  0
   -3.3248   -0.4332   -1.3556 C   0  0  0  0  0  0  0  0  0  0  0  0
   -4.4883   -0.3485   -1.7639 O   0  0  0  0  0  0  0  0  0  0  0  0
   -2.7418   -1.7975   -0.9055 C   0  0  2  0  0  0  0  0  0  0  0  0
   -1.7156   -2.3450   -1.8989 C   0  0  0  0  0  0  0  0  0  0  0  0
   -2.2737   -3.6828   -2.3576 C   0  0  0  0  0  0  0  0  0  0  0  0
   -3.7598   -3.5471   -2.1175 C   0  0  0  0  0  0  0  0  0  0  0  0
   -3.8129   -2.8275   -0.8473 N   0  0  0  0  0  0  0  0  0  0  0  0
    0.9195    3.1094    4.4135 H   0  0  0  0  0  0  0  0  0  0  0  0
   -0.2262    0.1179    3.1252 H   0  0  0  0  0  0  0  0  0  0  0  0
    2.1144   -0.2422    3.9888 H   0  0  0  0  0  0  0  0  0  0  0  0
    1.6145   -1.4200    2.7981 H   0  0  0  0  0  0  0  0  0  0  0  0
    3.8084    1.5432    3.3788 H   0  0  0  0  0  0  0  0  0  0  0  0
    5.7784    2.0474    2.0053 H   0  0  0  0  0  0  0  0  0  0  0  0
    6.9551    1.4737    0.1569 H   0  0  0  0  0  0  0  0  0  0  0  0
    4.7064   -1.0933   -0.7308 H   0  0  0  0  0  0  0  0  0  0  0  0
    2.7145   -1.6134    0.6374 H   0  0  0  0  0  0  0  0  0  0  0  0
    1.0441    0.8001    0.5202 H   0  0  0  0  0  0  0  0  0  0  0  0
   -0.5225   -0.0006   -1.3339 H   0  0  0  0  0  0  0  0  0  0  0  0
   -0.7081    2.8525   -0.3317 H   0  0  0  0  0  0  0  0  0  0  0  0
    0.3619    2.1900   -1.5720 H   0  0  0  0  0  0  0  0  0  0  0  0
   -1.7594    3.7205   -2.3046 H   0  0  0  0  0  0  0  0  0  0  0  0
   -1.3595    2.2606   -3.2321 H   0  0  0  0  0  0  0  0  0  0  0  0
   -3.6671    1.8444   -2.6348 H   0  0  0  0  0  0  0  0  0  0  0  0
   -3.4331    2.4964   -0.9902 H   0  0  0  0  0  0  0  0  0  0  0  0
   -2.3213   -1.6962    0.0975 H   0  0  0  0  0  0  0  0  0  0  0  0
   -1.5914   -1.6839   -2.7644 H   0  0  0  0  0  0  0  0  0  0  0  0
   -0.7337   -2.4830   -1.4338 H   0  0  0  0  0  0  0  0  0  0  0  0
   -2.0348   -3.8938   -3.4041 H   0  0  0  0  0  0  0  0  0  0  0  0
   -1.8578   -4.4916   -1.7441 H   0  0  0  0  0  0  0  0  0  0  0  0
   -4.2574   -4.5184   -2.0500 H   0  0  0  0  0  0  0  0  0  0  0  0
   -4.2347   -2.9654   -2.9162 H   0  0  0  0  0  0  0  0  0  0  0  0
   -4.7133   -2.3419   -0.7719 H   0  0  0  0  0  0  0  0  0  0  0  0
  1  2  2  0  0  0  0
  2  3  1  0  0  0  0
  2  4  1  0  0  0  0
  4  5  1  0  0  0  0
  5  6  1  0  0  0  0
  6  7  2  0  0  0  0
  7  8  1  0  0  0  0
  8  9  2  0  0  0  0
  9 10  1  0  0  0  0
  9 11  1  0  0  0  0
 11 12  2  0  0  0  0
  4 13  1  0  0  0  0
 13 14  1  0  0  0  0
 14 15  2  0  0  0  0
 14 16  1  0  0  0  0
 16 17  1  0  0  0  0
 17 18  1  0  0  0  0
 18 19  1  0  0  0  0
 19 20  1  0  0  0  0
 20 21  1  0  0  0  0
 21 22  2  0  0  0  0
 21 23  1  0  0  0  0
 23 24  1  0  0  0  0
 24 25  1  0  0  0  0
 25 26  1  0  0  0  0
 26 27  1  0  0  0  0
  6 12  1  0  0  0  0
 16 20  1  0  0  0  0
 23 27  1  0  0  0  0
  3 28  1  0  0  0  0
  4 29  1  0  0  0  0
  5 30  1  0  0  0  0
  5 31  1  0  0  0  0
  7 32  1  0  0  0  0
  8 33  1  0  0  0  0
 10 34  1  0  0  0  0
 11 35  1  0  0  0  0
 12 36  1  0  0  0  0
 13 37  1  0  0  0  0
 16 38  1  0  0  0  0
 17 39  1  0  0  0  0
 17 40  1  0  0  0  0
 18 41  1  0  0  0  0
 18 42  1  0  0  0  0
 19 43  1  0  0  0  0
 19 44  1  0  0  0  0
 23 45  1  0  0  0  0
 24 46  1  0  0  0  0
 24 47  1  0  0  0  0
 25 48  1  0  0  0  0
 25 49  1  0  0  0  0
 26 50  1  0  0  0  0
 26 51  1  0  0  0  0
 27 52  1  0  0  0  0
M  END
$$$$
PPY.sdf
  PyMOL2.5          3D                             0

 52 54  0  0  1  0  0  0  0  0999 V2000
    0.2983    3.3808    0.9123 O   0  0  0  0  0  0  0  0  0  0  0  0
    1.3634    2.7771    0.8532 C   0  0  0  0  0  0  0  0  0  0  0  0
    2.5096    3.4463    1.0726 O   0  0  0  0  0  0  0  0  0  0  0  0
    1.5145    1.2664    0.6327 C   0  0  2  0  0  0  0  0  0  0  0  0
    2.8751    0.8243    0.0632 C   0  0  0  0  0  0  0  0  0  0  0  0
    3.8617    0.4322    1.1441 C   0  0  0  0  0  0  0  0  0  0  0  0
    3.7533   -0.8150    1.7781 C   0  0  0  0  0  0  0  0  0  0  0  0
    4.6504   -1.1769    2.7837 C   0  0  0  0  0  0  0  0  0  0  0  0
    5.6583   -0.2966    3.1562 C   0  0  0  0  0  0  0  0  0  0  0  0
    6.5136   -0.6899    4.1427 O   0  0  0  0  0  0  0  0  0  0  0  0
    5.7859    0.9428    2.5382 C   0  0  0  0  0  0  0  0  0  0  0  0
    4.8871    1.3052    1.5321 C   0  0  0  0  0  0  0  0  0  0  0  0
    0.3786    0.8201   -0.1815 N   0  0  0  0  0  0  0  0  0  0  0  0
    0.2718    1.1009   -1.5263 C   0  0  0  0  0  0  0  0  0  0  0  0
    1.1803    1.6250   -2.1674 O   0  0  0  0  0  0  0  0  0  0  0  0
   -1.0929    0.7544   -2.1638 C   0  0  2  0  0  0  0  0  0  0  0  0
   -1.7745    2.0324   -2.6640 C   0  0  0  0  0  0  0  0  0  0  0  0
   -2.6669    2.4344   -1.4941 C   0  0  0  0  0  0  0  0  0  0  0  0
   -3.1732    1.0941   -0.9873 C   0  0  0  0  0  0  0  0  0  0  0  0
   -2.0655    0.1794   -1.2218 N   0  0  0  0  0  0  0  0  0  0  0  0
   -2.0608   -1.1775   -0.9456 C   0  0  0  0  0  0  0  0  0  0  0  0
   -1.1495   -1.9027   -1.3493 O   0  0  0  0  0  0  0  0  0  0  0  0
   -3.2110   -1.7251   -0.0613 C   0  0  2  0  0  0  0  0  0  0  0  0
   -3.0294   -3.1920    0.3090 C   0  0  0  0  0  0  0  0  0  0  0  0
   -3.6792   -3.9665   -0.8311 C   0  0  0  0  0  0  0  0  0  0  0  0
   -4.4315   -2.9272   -1.6475 C   0  0  0  0  0  0  0  0  0  0  0  0
   -4.4987   -1.7288   -0.7993 N   0  0  0  0  0  0  0  0  0  0  0  0
    2.2195    4.3745    1.1939 H   0  0  0  0  0  0  0  0  0  0  0  0
    1.3507    0.8058    1.6150 H   0  0  0  0  0  0  0  0  0  0  0  0
    2.7516   -0.0529   -0.5867 H   0  0  0  0  0  0  0  0  0  0  0  0
    3.3142    1.6025   -0.5734 H   0  0  0  0  0  0  0  0  0  0  0  0
    2.9726   -1.5148    1.4871 H   0  0  0  0  0  0  0  0  0  0  0  0
    4.5659   -2.1439    3.2708 H   0  0  0  0  0  0  0  0  0  0  0  0
    7.1769    0.0078    4.2699 H   0  0  0  0  0  0  0  0  0  0  0  0
    6.5712    1.6361    2.8213 H   0  0  0  0  0  0  0  0  0  0  0  0
    4.9912    2.2758    1.0512 H   0  0  0  0  0  0  0  0  0  0  0  0
   -0.4990    0.6409    0.2904 H   0  0  0  0  0  0  0  0  0  0  0  0
   -0.9028    0.0514   -2.9827 H   0  0  0  0  0  0  0  0  0  0  0  0
   -1.0814    2.8304   -2.9462 H   0  0  0  0  0  0  0  0  0  0  0  0
   -2.4002    1.8005   -3.5347 H   0  0  0  0  0  0  0  0  0  0  0  0
   -2.0702    2.9325   -0.7213 H   0  0  0  0  0  0  0  0  0  0  0  0
   -3.4779    3.1062   -1.7882 H   0  0  0  0  0  0  0  0  0  0  0  0
   -4.0316    0.7631   -1.5802 H   0  0  0  0  0  0  0  0  0  0  0  0
   -3.4457    1.1155    0.0710 H   0  0  0  0  0  0  0  0  0  0  0  0
   -3.2702   -1.1074    0.8412 H   0  0  0  0  0  0  0  0  0  0  0  0
   -1.9851   -3.4860    0.4536 H   0  0  0  0  0  0  0  0  0  0  0  0
   -3.5654   -3.4102    1.2414 H   0  0  0  0  0  0  0  0  0  0  0  0
   -2.9263   -4.4706   -1.4463 H   0  0  0  0  0  0  0  0  0  0  0  0
   -4.3558   -4.7303   -0.4326 H   0  0  0  0  0  0  0  0  0  0  0  0
   -5.4325   -3.2717   -1.9255 H   0  0  0  0  0  0  0  0  0  0  0  0
   -3.8933   -2.6975   -2.5742 H   0  0  0  0  0  0  0  0  0  0  0  0
   -5.2453   -1.8753   -0.1182 H   0  0  0  0  0  0  0  0  0  0  0  0
  1  2  2  0  0  0  0
  2  3  1  0  0  0  0
  2  4  1  0  0  0  0
  4  5  1  0  0  0  0
  5  6  1  0  0  0  0
  6  7  2  0  0  0  0
  7  8  1  0  0  0  0
  8  9  2  0  0  0  0
  9 10  1  0  0  0  0
  9 11  1  0  0  0  0
 11 12  2  0  0  0  0
  4 13  1  0  0  0  0
 13 14  1  0  0  0  0
 14 15  2  0  0  0  0
 14 16  1  0  0  0  0
 16 17  1  0  0  0  0
 17 18  1  0  0  0  0
 18 19  1  0  0  0  0
 19 20  1  0  0  0  0
 20 21  1  0  0  0  0
 21 22  2  0  0  0  0
 21 23  1  0  0  0  0
 23 24  1  0  0  0  0
 24 25  1  0  0  0  0
 25 26  1  0  0  0  0
 26 27  1  0  0  0  0
  6 12  1  0  0  0  0
 16 20  1  0  0  0  0
 23 27  1  0  0  0  0
  3 28  1  0  0  0  0
  4 29  1  0  0  0  0
  5 30  1  0  0  0  0
  5 31  1  0  0  0  0
  7 32  1  0  0  0  0
  8 33  1  0  0  0  0
 10 34  1  0  0  0  0
 11 35  1  0  0  0  0
 12 36  1  0  0  0  0
 13 37  1  0  0  0  0
 16 38  1  0  0  0  0
 17 39  1  0  0  0  0
 17 40  1  0  0  0  0
 18 41  1  0  0  0  0
 18 42  1  0  0  0  0
 19 43  1  0  0  0  0
 19 44  1  0  0  0  0
 23 45  1  0  0  0  0
 24 46  1  0  0  0  0
 24 47  1  0  0  0  0
 25 48  1  0  0  0  0
 25 49  1  0  0  0  0
 26 50  1  0  0  0  0
 26 51  1  0  0  0  0
 27 52  1  0  0  0  0
M  END
$$$$
PPY.sdf
  PyMOL2.5          3D                             0

 52 54  0  0  1  0  0  0  0  0999 V2000
    3.9444    2.7391   -0.7500 O   0  0  0  0  0  0  0  0  0  0  0  0
    2.7702    2.4630   -0.9293 C   0  0  0  0  0  0  0  0  0  0  0  0
    2.1035    3.0405   -1.9624 O   0  0  0  0  0  0  0  0  0  0  0  0
    1.8969    1.5091   -0.1027 C   0  0  2  0  0  0  0  0  0  0  0  0
    2.5574    0.1235   -0.0236 C   0  0  0  0  0  0  0  0  0  0  0  0
    3.4641   -0.0186    1.1771 C   0  0  0  0  0  0  0  0  0  0  0  0
    2.9181   -0.3219    2.4334 C   0  0  0  0  0  0  0  0  0  0  0  0
    3.7433   -0.4405    3.5521 C   0  0  0  0  0  0  0  0  0  0  0  0
    5.1132   -0.2534    3.4196 C   0  0  0  0  0  0  0  0  0  0  0  0
    5.8836   -0.3758    4.5381 O   0  0  0  0  0  0  0  0  0  0  0  0
    5.6740    0.0516    2.1838 C   0  0  0  0  0  0  0  0  0  0  0  0
    4.8482    0.1693    1.0631 C   0  0  0  0  0  0  0  0  0  0  0  0
    0.5629    1.4332   -0.7187 N   0  0  0  0  0  0  0  0  0  0  0  0
   -0.5299    0.9692   -0.0195 C   0  0  0  0  0  0  0  0  0  0  0  0
   -0.4370    0.5089    1.1139 O   0  0  0  0  0  0  0  0  0  0  0  0
   -1.8590    1.0779   -0.7934 C   0  0  2  0  0  0  0  0  0  0  0  0
   -2.2719    2.5581   -0.8654 C   0  0  0  0  0  0  0  0  0  0  0  0
   -3.7776    2.5452   -0.6360 C   0  0  0  0  0  0  0  0  0  0  0  0
   -3.9699    1.3799    0.3166 C   0  0  0  0  0  0  0  0  0  0  0  0
   -2.9846    0.4150   -0.1281 N   0  0  0  0  0  0  0  0  0  0  0  0
   -3.1942   -0.9382    0.0460 C   0  0  0  0  0  0  0  0  0  0  0  0
   -4.1842   -1.3571    0.6558 O   0  0  0  0  0  0  0  0  0  0  0  0
   -2.1630   -1.9239   -0.5612 C   0  0  2  0  0  0  0  0  0  0  0  0
   -2.2431   -1.9766   -2.0879 C   0  0  0  0  0  0  0  0  0  0  0  0
   -2.5724   -3.4224   -2.4240 C   0  0  0  0  0  0  0  0  0  0  0  0
   -3.2358   -3.9360   -1.1667 C   0  0  0  0  0  0  0  0  0  0  0  0
   -2.4419   -3.3127   -0.1109 N   0  0  0  0  0  0  0  0  0  0  0  0
    2.7851    3.6220   -2.3668 H   0  0  0  0  0  0  0  0  0  0  0  0
    1.7609    1.9641    0.8858 H   0  0  0  0  0  0  0  0  0  0  0  0
    3.1227   -0.0918   -0.9401 H   0  0  0  0  0  0  0  0  0  0  0  0
    1.8015   -0.6707    0.0367 H   0  0  0  0  0  0  0  0  0  0  0  0
    1.8443   -0.4670    2.5476 H   0  0  0  0  0  0  0  0  0  0  0  0
    3.3165   -0.6771    4.5225 H   0  0  0  0  0  0  0  0  0  0  0  0
    6.8098   -0.2225    4.2911 H   0  0  0  0  0  0  0  0  0  0  0  0
    6.7425    0.2043    2.0723 H   0  0  0  0  0  0  0  0  0  0  0  0
    5.2940    0.4176    0.1022 H   0  0  0  0  0  0  0  0  0  0  0  0
    0.4373    1.9771   -1.5680 H   0  0  0  0  0  0  0  0  0  0  0  0
   -1.7356    0.6524   -1.7931 H   0  0  0  0  0  0  0  0  0  0  0  0
   -1.7868    3.1497   -0.0788 H   0  0  0  0  0  0  0  0  0  0  0  0
   -2.0074    3.0107   -1.8265 H   0  0  0  0  0  0  0  0  0  0  0  0
   -4.1558    3.4887   -0.2333 H   0  0  0  0  0  0  0  0  0  0  0  0
   -4.2915    2.3448   -1.5840 H   0  0  0  0  0  0  0  0  0  0  0  0
   -4.9863    0.9770    0.2866 H   0  0  0  0  0  0  0  0  0  0  0  0
   -3.7239    1.6601    1.3468 H   0  0  0  0  0  0  0  0  0  0  0  0
   -1.1617   -1.6559   -0.2172 H   0  0  0  0  0  0  0  0  0  0  0  0
   -1.2960   -1.6850   -2.5543 H   0  0  0  0  0  0  0  0  0  0  0  0
   -3.0300   -1.3212   -2.4790 H   0  0  0  0  0  0  0  0  0  0  0  0
   -3.2175   -3.5060   -3.3035 H   0  0  0  0  0  0  0  0  0  0  0  0
   -1.6487   -3.9790   -2.6256 H   0  0  0  0  0  0  0  0  0  0  0  0
   -3.2063   -5.0270   -1.1006 H   0  0  0  0  0  0  0  0  0  0  0  0
   -4.2811   -3.6104   -1.1136 H   0  0  0  0  0  0  0  0  0  0  0  0
   -3.0012   -3.2612    0.7474 H   0  0  0  0  0  0  0  0  0  0  0  0
  1  2  2  0  0  0  0
  2  3  1  0  0  0  0
  2  4  1  0  0  0  0
  4  5  1  0  0  0  0
  5  6  1  0  0  0  0
  6  7  2  0  0  0  0
  7  8  1  0  0  0  0
  8  9  2  0  0  0  0
  9 10  1  0  0  0  0
  9 11  1  0  0  0  0
 11 12  2  0  0  0  0
  4 13  1  0  0  0  0
 13 14  1  0  0  0  0
 14 15  2  0  0  0  0
 14 16  1  0  0  0  0
 16 17  1  0  0  0  0
 17 18  1  0  0  0  0
 18 19  1  0  0  0  0
 19 20  1  0  0  0  0
 20 21  1  0  0  0  0
 21 22  2  0  0  0  0
 21 23  1  0  0  0  0
 23 24  1  0  0  0  0
 24 25  1  0  0  0  0
 25 26  1  0  0  0  0
 26 27  1  0  0  0  0
  6 12  1  0  0  0  0
 16 20  1  0  0  0  0
 23 27  1  0  0  0  0
  3 28  1  0  0  0  0
  4 29  1  0  0  0  0
  5 30  1  0  0  0  0
  5 31  1  0  0  0  0
  7 32  1  0  0  0  0
  8 33  1  0  0  0  0
 10 34  1  0  0  0  0
 11 35  1  0  0  0  0
 12 36  1  0  0  0  0
 13 37  1  0  0  0  0
 16 38  1  0  0  0  0
 17 39  1  0  0  0  0
 17 40  1  0  0  0  0
 18 41  1  0  0  0  0
 18 42  1  0  0  0  0
 19 43  1  0  0  0  0
 19 44  1  0  0  0  0
 23 45  1  0  0  0  0
 24 46  1  0  0  0  0
 24 47  1  0  0  0  0
 25 48  1  0  0  0  0
 25 49  1  0  0  0  0
 26 50  1  0  0  0  0
 26 51  1  0  0  0  0
 27 52  1  0  0  0  0
M  END
$$$$
PPY.sdf
  PyMOL2.5          3D                             0

 52 54  0  0  1  0  0  0  0  0999 V2000
    0.3632    3.2454    1.3426 O   0  0  0  0  0  0  0  0  0  0  0  0
    1.3395    2.5562    1.0701 C   0  0  0  0  0  0  0  0  0  0  0  0
    2.5704    3.0195    1.3546 O   0  0  0  0  0  0  0  0  0  0  0  0
    1.2894    1.1311    0.5045 C   0  0  2  0  0  0  0  0  0  0  0  0
    2.5461    0.6939   -0.2701 C   0  0  0  0  0  0  0  0  0  0  0  0
    3.5102   -0.0947    0.5924 C   0  0  0  0  0  0  0  0  0  0  0  0
    3.2705   -1.4526    0.8530 C   0  0  0  0  0  0  0  0  0  0  0  0
    4.1434   -2.1814    1.6614 C   0  0  0  0  0  0  0  0  0  0  0  0
    5.2573   -1.5573    2.2086 C   0  0  0  0  0  0  0  0  0  0  0  0
    6.0846   -2.3061    2.9923 O   0  0  0  0  0  0  0  0  0  0  0  0
    5.5149   -0.2132    1.9602 C   0  0  0  0  0  0  0  0  0  0  0  0
    4.6403    0.5166    1.1518 C   0  0  0  0  0  0  0  0  0  0  0  0
    0.0600    1.0082   -0.2839 N   0  0  0  0  0  0  0  0  0  0  0  0
   -0.0946    1.5959   -1.5218 C   0  0  0  0  0  0  0  0  0  0  0  0
    0.8125    2.2060   -2.0839 O   0  0  0  0  0  0  0  0  0  0  0  0
   -1.5316    1.5646   -2.0795 C   0  0  2  0  0  0  0  0  0  0  0  0
   -2.1728    2.9419   -1.8775 C   0  0  0  0  0  0  0  0  0  0  0  0
   -3.6474    2.6283   -1.6810 C   0  0  0  0  0  0  0  0  0  0  0  0
   -3.6182    1.3356   -0.8828 C   0  0  0  0  0  0  0  0  0  0  0  0
   -2.4375    0.6397   -1.3732 N   0  0  0  0  0  0  0  0  0  0  0  0
   -2.3057   -0.7300   -1.5642 C   0  0  0  0  0  0  0  0  0  0  0  0
   -1.3870   -1.1712   -2.2566 O   0  0  0  0  0  0  0  0  0  0  0  0
   -3.3121   -1.6426   -0.8104 C   0  0  2  0  0  0  0  0  0  0  0  0
   -3.0842   -1.6207    0.6931 C   0  0  0  0  0  0  0  0  0  0  0  0
   -2.0083   -2.6729    0.9235 C   0  0  0  0  0  0  0  0  0  0  0  0
   -2.0237   -3.5487   -0.3210 C   0  0  0  0  0  0  0  0  0  0  0  0
   -3.1422   -3.0765   -1.1450 N   0  0  0  0  0  0  0  0  0  0  0  0
    2.4066    3.9222    1.6994 H   0  0  0  0  0  0  0  0  0  0  0  0
    1.1316    0.4748    1.3697 H   0  0  0  0  0  0  0  0  0  0  0  0
    3.0641    1.5527   -0.7148 H   0  0  0  0  0  0  0  0  0  0  0  0
    2.2729    0.0463   -1.1144 H   0  0  0  0  0  0  0  0  0  0  0  0
    2.4054   -1.9517    0.4208 H   0  0  0  0  0  0  0  0  0  0  0  0
    3.9579   -3.2333    1.8584 H   0  0  0  0  0  0  0  0  0  0  0  0
    6.8328   -1.7511    3.2665 H   0  0  0  0  0  0  0  0  0  0  0  0
    6.3836    0.2818    2.3819 H   0  0  0  0  0  0  0  0  0  0  0  0
    4.8462    1.5676    0.9595 H   0  0  0  0  0  0  0  0  0  0  0  0
   -0.7946    0.7636    0.1989 H   0  0  0  0  0  0  0  0  0  0  0  0
   -1.4993    1.2795   -3.1373 H   0  0  0  0  0  0  0  0  0  0  0  0
   -1.7779    3.4401   -0.9830 H   0  0  0  0  0  0  0  0  0  0  0  0
   -1.9979    3.6059   -2.7297 H   0  0  0  0  0  0  0  0  0  0  0  0
   -4.1215    2.4582   -2.6553 H   0  0  0  0  0  0  0  0  0  0  0  0
   -4.1903    3.4279   -1.1698 H   0  0  0  0  0  0  0  0  0  0  0  0
   -3.4643    1.5373    0.1824 H   0  0  0  0  0  0  0  0  0  0  0  0
   -4.5350    0.7589   -1.0143 H   0  0  0  0  0  0  0  0  0  0  0  0
   -4.3273   -1.3422   -1.0824 H   0  0  0  0  0  0  0  0  0  0  0  0
   -4.0021   -1.9187    1.2151 H   0  0  0  0  0  0  0  0  0  0  0  0
   -2.7734   -0.6502    1.0895 H   0  0  0  0  0  0  0  0  0  0  0  0
   -2.2149   -3.2479    1.8321 H   0  0  0  0  0  0  0  0  0  0  0  0
   -1.0270   -2.1985    1.0393 H   0  0  0  0  0  0  0  0  0  0  0  0
   -2.1486   -4.6066   -0.0678 H   0  0  0  0  0  0  0  0  0  0  0  0
   -1.0808   -3.4558   -0.8707 H   0  0  0  0  0  0  0  0  0  0  0  0
   -3.9829   -3.5756   -0.8561 H   0  0  0  0  0  0  0  0  0  0  0  0
  1  2  2  0  0  0  0
  2  3  1  0  0  0  0
  2  4  1  0  0  0  0
  4  5  1  0  0  0  0
  5  6  1  0  0  0  0
  6  7  2  0  0  0  0
  7  8  1  0  0  0  0
  8  9  2  0  0  0  0
  9 10  1  0  0  0  0
  9 11  1  0  0  0  0
 11 12  2  0  0  0  0
  4 13  1  0  0  0  0
 13 14  1  0  0  0  0
 14 15  2  0  0  0  0
 14 16  1  0  0  0  0
 16 17  1  0  0  0  0
 17 18  1  0  0  0  0
 18 19  1  0  0  0  0
 19 20  1  0  0  0  0
 20 21  1  0  0  0  0
 21 22  2  0  0  0  0
 21 23  1  0  0  0  0
 23 24  1  0  0  0  0
 24 25  1  0  0  0  0
 25 26  1  0  0  0  0
 26 27  1  0  0  0  0
  6 12  1  0  0  0  0
 16 20  1  0  0  0  0
 23 27  1  0  0  0  0
  3 28  1  0  0  0  0
  4 29  1  0  0  0  0
  5 30  1  0  0  0  0
  5 31  1  0  0  0  0
  7 32  1  0  0  0  0
  8 33  1  0  0  0  0
 10 34  1  0  0  0  0
 11 35  1  0  0  0  0
 12 36  1  0  0  0  0
 13 37  1  0  0  0  0
 16 38  1  0  0  0  0
 17 39  1  0  0  0  0
 17 40  1  0  0  0  0
 18 41  1  0  0  0  0
 18 42  1  0  0  0  0
 19 43  1  0  0  0  0
 19 44  1  0  0  0  0
 23 45  1  0  0  0  0
 24 46  1  0  0  0  0
 24 47  1  0  0  0  0
 25 48  1  0  0  0  0
 25 49  1  0  0  0  0
 26 50  1  0  0  0  0
 26 51  1  0  0  0  0
 27 52  1  0  0  0  0
M  END
$$$$
PPY.sdf
  PyMOL2.5          3D                             0

 52 54  0  0  1  0  0  0  0  0999 V2000
    1.4461   -1.1174   -1.7898 O   0  0  0  0  0  0  0  0  0  0  0  0
    1.9620   -0.1532   -1.2395 C   0  0  0  0  0  0  0  0  0  0  0  0
    3.1924    0.2575   -1.6095 O   0  0  0  0  0  0  0  0  0  0  0  0
    1.3642    0.6857   -0.1049 C   0  0  2  0  0  0  0  0  0  0  0  0
    1.5900   -0.0160    1.2403 C   0  0  0  0  0  0  0  0  0  0  0  0
    3.0330   -0.0471    1.6848 C   0  0  0  0  0  0  0  0  0  0  0  0
    3.6617    1.1215    2.1373 C   0  0  0  0  0  0  0  0  0  0  0  0
    4.9971    1.0932    2.5412 C   0  0  0  0  0  0  0  0  0  0  0  0
    5.7060   -0.1004    2.4952 C   0  0  0  0  0  0  0  0  0  0  0  0
    7.0078   -0.0826    2.9005 O   0  0  0  0  0  0  0  0  0  0  0  0
    5.1013   -1.2711    2.0504 C   0  0  0  0  0  0  0  0  0  0  0  0
    3.7647   -1.2433    1.6453 C   0  0  0  0  0  0  0  0  0  0  0  0
   -0.0734    0.8443   -0.3491 N   0  0  0  0  0  0  0  0  0  0  0  0
   -0.5364    1.7612   -1.2611 C   0  0  0  0  0  0  0  0  0  0  0  0
    0.2213    2.5454   -1.8314 O   0  0  0  0  0  0  0  0  0  0  0  0
   -2.0406    1.6610   -1.6268 C   0  0  2  0  0  0  0  0  0  0  0  0
   -2.6195    3.0736   -1.7887 C   0  0  0  0  0  0  0  0  0  0  0  0
   -3.0743    3.4079   -0.3725 C   0  0  0  0  0  0  0  0  0  0  0  0
   -3.6552    2.0890    0.1102 C   0  0  0  0  0  0  0  0  0  0  0  0
   -2.9221    1.0596   -0.6112 N   0  0  0  0  0  0  0  0  0  0  0  0
   -3.3480   -0.2558   -0.5154 C   0  0  0  0  0  0  0  0  0  0  0  0
   -4.2747   -0.5685    0.2375 O   0  0  0  0  0  0  0  0  0  0  0  0
   -2.5895   -1.3243   -1.3415 C   0  0  2  0  0  0  0  0  0  0  0  0
   -3.3028   -2.6726   -1.3904 C   0  0  0  0  0  0  0  0  0  0  0  0
   -2.6622   -3.5180   -0.2974 C   0  0  0  0  0  0  0  0  0  0  0  0
   -1.6253   -2.6207    0.3487 C   0  0  0  0  0  0  0  0  0  0  0  0
   -1.2982   -1.6164   -0.6721 N   0  0  0  0  0  0  0  0  0  0  0  0
    3.4453   -0.3363   -2.3449 H   0  0  0  0  0  0  0  0  0  0  0  0
    1.8214    1.6820   -0.1221 H   0  0  0  0  0  0  0  0  0  0  0  0
    1.1968   -1.0409    1.2017 H   0  0  0  0  0  0  0  0  0  0  0  0
    1.0058    0.4872    2.0230 H   0  0  0  0  0  0  0  0  0  0  0  0
    3.1173    2.0625    2.1792 H   0  0  0  0  0  0  0  0  0  0  0  0
    5.4823    2.0003    2.8903 H   0  0  0  0  0  0  0  0  0  0  0  0
    7.3697   -0.9795    2.8165 H   0  0  0  0  0  0  0  0  0  0  0  0
    5.6482   -2.2076    2.0122 H   0  0  0  0  0  0  0  0  0  0  0  0
    3.2986   -2.1631    1.2982 H   0  0  0  0  0  0  0  0  0  0  0  0
   -0.6350   -0.0082   -0.2632 H   0  0  0  0  0  0  0  0  0  0  0  0
   -2.1075    1.1113   -2.5696 H   0  0  0  0  0  0  0  0  0  0  0  0
   -3.4910    3.0445   -2.4548 H   0  0  0  0  0  0  0  0  0  0  0  0
   -1.9175    3.8141   -2.1818 H   0  0  0  0  0  0  0  0  0  0  0  0
   -2.2123    3.6912    0.2432 H   0  0  0  0  0  0  0  0  0  0  0  0
   -3.8013    4.2239   -0.3388 H   0  0  0  0  0  0  0  0  0  0  0  0
   -4.7170    2.0095   -0.1504 H   0  0  0  0  0  0  0  0  0  0  0  0
   -3.5445    1.9459    1.1894 H   0  0  0  0  0  0  0  0  0  0  0  0
   -2.4361   -0.9535   -2.3578 H   0  0  0  0  0  0  0  0  0  0  0  0
   -3.1304   -3.1553   -2.3603 H   0  0  0  0  0  0  0  0  0  0  0  0
   -4.3861   -2.5967   -1.2528 H   0  0  0  0  0  0  0  0  0  0  0  0
   -3.4017   -3.8642    0.4318 H   0  0  0  0  0  0  0  0  0  0  0  0
   -2.1893   -4.4018   -0.7412 H   0  0  0  0  0  0  0  0  0  0  0  0
   -2.0338   -2.1276    1.2381 H   0  0  0  0  0  0  0  0  0  0  0  0
   -0.7355   -3.1768    0.6593 H   0  0  0  0  0  0  0  0  0  0  0  0
   -0.6722   -2.0534   -1.3605 H   0  0  0  0  0  0  0  0  0  0  0  0
  1  2  2  0  0  0  0
  2  3  1  0  0  0  0
  2  4  1  0  0  0  0
  4  5  1  0  0  0  0
  5  6  1  0  0  0  0
  6  7  2  0  0  0  0
  7  8  1  0  0  0  0
  8  9  2  0  0  0  0
  9 10  1  0  0  0  0
  9 11  1  0  0  0  0
 11 12  2  0  0  0  0
  4 13  1  0  0  0  0
 13 14  1  0  0  0  0
 14 15  2  0  0  0  0
 14 16  1  0  0  0  0
 16 17  1  0  0  0  0
 17 18  1  0  0  0  0
 18 19  1  0  0  0  0
 19 20  1  0  0  0  0
 20 21  1  0  0  0  0
 21 22  2  0  0  0  0
 21 23  1  0  0  0  0
 23 24  1  0  0  0  0
 24 25  1  0  0  0  0
 25 26  1  0  0  0  0
 26 27  1  0  0  0  0
  6 12  1  0  0  0  0
 16 20  1  0  0  0  0
 23 27  1  0  0  0  0
  3 28  1  0  0  0  0
  4 29  1  0  0  0  0
  5 30  1  0  0  0  0
  5 31  1  0  0  0  0
  7 32  1  0  0  0  0
  8 33  1  0  0  0  0
 10 34  1  0  0  0  0
 11 35  1  0  0  0  0
 12 36  1  0  0  0  0
 13 37  1  0  0  0  0
 16 38  1  0  0  0  0
 17 39  1  0  0  0  0
 17 40  1  0  0  0  0
 18 41  1  0  0  0  0
 18 42  1  0  0  0  0
 19 43  1  0  0  0  0
 19 44  1  0  0  0  0
 23 45  1  0  0  0  0
 24 46  1  0  0  0  0
 24 47  1  0  0  0  0
 25 48  1  0  0  0  0
 25 49  1  0  0  0  0
 26 50  1  0  0  0  0
 26 51  1  0  0  0  0
 27 52  1  0  0  0  0
M  END
$$$$
PPY.sdf
  PyMOL2.5          3D                             0

 52 54  0  0  1  0  0  0  0  0999 V2000
    3.6747   -0.4473   -2.5169 O   0  0  0  0  0  0  0  0  0  0  0  0
    3.6115    0.4325   -1.6685 C   0  0  0  0  0  0  0  0  0  0  0  0
    4.6125    1.3216   -1.5290 O   0  0  0  0  0  0  0  0  0  0  0  0
    2.4547    0.6513   -0.7010 C   0  0  2  0  0  0  0  0  0  0  0  0
    2.5924   -0.2841    0.5094 C   0  0  0  0  0  0  0  0  0  0  0  0
    3.7314    0.0853    1.4303 C   0  0  0  0  0  0  0  0  0  0  0  0
    3.6301    1.2111    2.2601 C   0  0  0  0  0  0  0  0  0  0  0  0
    4.6840    1.5624    3.1041 C   0  0  0  0  0  0  0  0  0  0  0  0
    5.8381    0.7895    3.1230 C   0  0  0  0  0  0  0  0  0  0  0  0
    6.8428    1.1674    3.9641 O   0  0  0  0  0  0  0  0  0  0  0  0
    5.9577   -0.3327    2.3098 C   0  0  0  0  0  0  0  0  0  0  0  0
    4.9034   -0.6841    1.4634 C   0  0  0  0  0  0  0  0  0  0  0  0
    1.2242    0.3727   -1.4500 N   0  0  0  0  0  0  0  0  0  0  0  0
   -0.0046    0.7903   -0.9829 C   0  0  0  0  0  0  0  0  0  0  0  0
   -0.1177    1.5219   -0.0011 O   0  0  0  0  0  0  0  0  0  0  0  0
   -1.1945    0.3310   -1.8520 C   0  0  2  0  0  0  0  0  0  0  0  0
   -1.4729    1.3498   -2.9572 C   0  0  0  0  0  0  0  0  0  0  0  0
   -2.4705    2.3040   -2.3035 C   0  0  0  0  0  0  0  0  0  0  0  0
   -3.3204    1.3811   -1.4405 C   0  0  0  0  0  0  0  0  0  0  0  0
   -2.4253    0.2963   -1.0770 N   0  0  0  0  0  0  0  0  0  0  0  0
   -2.6835   -0.7484   -0.2147 C   0  0  0  0  0  0  0  0  0  0  0  0
   -1.8759   -1.6724   -0.0821 O   0  0  0  0  0  0  0  0  0  0  0  0
   -4.0090   -0.6923    0.5841 C   0  0  2  0  0  0  0  0  0  0  0  0
   -4.1395   -1.8201    1.6004 C   0  0  0  0  0  0  0  0  0  0  0  0
   -4.7858   -2.9668    0.8329 C   0  0  0  0  0  0  0  0  0  0  0  0
   -5.2318   -2.3664   -0.4910 C   0  0  0  0  0  0  0  0  0  0  0  0
   -5.1792   -0.9102   -0.3062 N   0  0  0  0  0  0  0  0  0  0  0  0
    5.2801    1.0588   -2.1955 H   0  0  0  0  0  0  0  0  0  0  0  0
    2.4265    1.7056   -0.4020 H   0  0  0  0  0  0  0  0  0  0  0  0
    2.7145   -1.3216    0.1696 H   0  0  0  0  0  0  0  0  0  0  0  0
    1.6680   -0.2834    1.1018 H   0  0  0  0  0  0  0  0  0  0  0  0
    2.7272    1.8195    2.2562 H   0  0  0  0  0  0  0  0  0  0  0  0
    4.6025    2.4348    3.7460 H   0  0  0  0  0  0  0  0  0  0  0  0
    7.5680    0.5268    3.8853 H   0  0  0  0  0  0  0  0  0  0  0  0
    6.8551   -0.9426    2.3209 H   0  0  0  0  0  0  0  0  0  0  0  0
    5.0030   -1.5644    0.8319 H   0  0  0  0  0  0  0  0  0  0  0  0
    1.2647   -0.3736   -2.1375 H   0  0  0  0  0  0  0  0  0  0  0  0
   -0.9805   -0.6627   -2.2619 H   0  0  0  0  0  0  0  0  0  0  0  0
   -1.9521    0.8524   -3.8093 H   0  0  0  0  0  0  0  0  0  0  0  0
   -0.5803    1.8688   -3.3189 H   0  0  0  0  0  0  0  0  0  0  0  0
   -3.0647    2.8632   -3.0316 H   0  0  0  0  0  0  0  0  0  0  0  0
   -1.9381    3.0256   -1.6726 H   0  0  0  0  0  0  0  0  0  0  0  0
   -4.1477    0.9626   -2.0225 H   0  0  0  0  0  0  0  0  0  0  0  0
   -3.7170    1.8821   -0.5537 H   0  0  0  0  0  0  0  0  0  0  0  0
   -4.0654    0.2797    1.0853 H   0  0  0  0  0  0  0  0  0  0  0  0
   -3.1889   -2.1212    2.0516 H   0  0  0  0  0  0  0  0  0  0  0  0
   -4.8081   -1.5127    2.4144 H   0  0  0  0  0  0  0  0  0  0  0  0
   -5.6345   -3.3686    1.3970 H   0  0  0  0  0  0  0  0  0  0  0  0
   -4.0742   -3.7828    0.6677 H   0  0  0  0  0  0  0  0  0  0  0  0
   -4.5537   -2.6634   -1.2993 H   0  0  0  0  0  0  0  0  0  0  0  0
   -6.2382   -2.6939   -0.7698 H   0  0  0  0  0  0  0  0  0  0  0  0
   -6.0132   -0.6326    0.2132 H   0  0  0  0  0  0  0  0  0  0  0  0
  1  2  2  0  0  0  0
  2  3  1  0  0  0  0
  2  4  1  0  0  0  0
  4  5  1  0  0  0  0
  5  6  1  0  0  0  0
  6  7  2  0  0  0  0
  7  8  1  0  0  0  0
  8  9  2  0  0  0  0
  9 10  1  0  0  0  0
  9 11  1  0  0  0  0
 11 12  2  0  0  0  0
  4 13  1  0  0  0  0
 13 14  1  0  0  0  0
 14 15  2  0  0  0  0
 14 16  1  0  0  0  0
 16 17  1  0  0  0  0
 17 18  1  0  0  0  0
 18 19  1  0  0  0  0
 19 20  1  0  0  0  0
 20 21  1  0  0  0  0
 21 22  2  0  0  0  0
 21 23  1  0  0  0  0
 23 24  1  0  0  0  0
 24 25  1  0  0  0  0
 25 26  1  0  0  0  0
 26 27  1  0  0  0  0
  6 12  1  0  0  0  0
 16 20  1  0  0  0  0
 23 27  1  0  0  0  0
  3 28  1  0  0  0  0
  4 29  1  0  0  0  0
  5 30  1  0  0  0  0
  5 31  1  0  0  0  0
  7 32  1  0  0  0  0
  8 33  1  0  0  0  0
 10 34  1  0  0  0  0
 11 35  1  0  0  0  0
 12 36  1  0  0  0  0
 13 37  1  0  0  0  0
 16 38  1  0  0  0  0
 17 39  1  0  0  0  0
 17 40  1  0  0  0  0
 18 41  1  0  0  0  0
 18 42  1  0  0  0  0
 19 43  1  0  0  0  0
 19 44  1  0  0  0  0
 23 45  1  0  0  0  0
 24 46  1  0  0  0  0
 24 47  1  0  0  0  0
 25 48  1  0  0  0  0
 25 49  1  0  0  0  0
 26 50  1  0  0  0  0
 26 51  1  0  0  0  0
 27 52  1  0  0  0  0
M  END
$$$$
PPY.sdf
  PyMOL2.5          3D                             0

 52 54  0  0  1  0  0  0  0  0999 V2000
    1.4820    1.4978   -2.7063 O   0  0  0  0  0  0  0  0  0  0  0  0
    2.1895    0.9582   -1.8638 C   0  0  0  0  0  0  0  0  0  0  0  0
    3.0858    0.0339   -2.2457 O   0  0  0  0  0  0  0  0  0  0  0  0
    2.1721    1.3022   -0.3708 C   0  0  2  0  0  0  0  0  0  0  0  0
    2.9196    0.3221    0.5520 C   0  0  0  0  0  0  0  0  0  0  0  0
    4.3735    0.7001    0.7514 C   0  0  0  0  0  0  0  0  0  0  0  0
    5.3869    0.0487    0.0362 C   0  0  0  0  0  0  0  0  0  0  0  0
    6.7228    0.4114    0.2140 C   0  0  0  0  0  0  0  0  0  0  0  0
    7.0494    1.4232    1.1079 C   0  0  0  0  0  0  0  0  0  0  0  0
    8.3667    1.7445    1.2508 O   0  0  0  0  0  0  0  0  0  0  0  0
    6.0602    2.0815    1.8305 C   0  0  0  0  0  0  0  0  0  0  0  0
    4.7230    1.7193    1.6512 C   0  0  0  0  0  0  0  0  0  0  0  0
    0.7681    1.5283    0.0184 N   0  0  0  0  0  0  0  0  0  0  0  0
   -0.1083    0.4688    0.1932 C   0  0  0  0  0  0  0  0  0  0  0  0
    0.2610   -0.7028    0.1950 O   0  0  0  0  0  0  0  0  0  0  0  0
   -1.5652    0.9082    0.4709 C   0  0  2  0  0  0  0  0  0  0  0  0
   -1.7176    1.3685    1.9213 C   0  0  0  0  0  0  0  0  0  0  0  0
   -2.0438    0.0717    2.6588 C   0  0  0  0  0  0  0  0  0  0  0  0
   -2.9200   -0.6842    1.6683 C   0  0  0  0  0  0  0  0  0  0  0  0
   -2.4900   -0.2121    0.3618 N   0  0  0  0  0  0  0  0  0  0  0  0
   -2.9249   -0.6534   -0.8699 C   0  0  0  0  0  0  0  0  0  0  0  0
   -2.5844   -0.0778   -1.9055 O   0  0  0  0  0  0  0  0  0  0  0  0
   -3.8976   -1.8540   -0.8810 C   0  0  2  0  0  0  0  0  0  0  0  0
   -4.0572   -2.4987   -2.2617 C   0  0  0  0  0  0  0  0  0  0  0  0
   -5.5165   -2.2935   -2.6239 C   0  0  0  0  0  0  0  0  0  0  0  0
   -6.1922   -2.1999   -1.2742 C   0  0  0  0  0  0  0  0  0  0  0  0
   -5.2602   -1.3953   -0.4780 N   0  0  0  0  0  0  0  0  0  0  0  0
    2.9242   -0.0660   -3.2076 H   0  0  0  0  0  0  0  0  0  0  0  0
    2.6377    2.2937   -0.2980 H   0  0  0  0  0  0  0  0  0  0  0  0
    2.4543    0.3080    1.5472 H   0  0  0  0  0  0  0  0  0  0  0  0
    2.8558   -0.7090    0.1831 H   0  0  0  0  0  0  0  0  0  0  0  0
    5.1434   -0.7471   -0.6648 H   0  0  0  0  0  0  0  0  0  0  0  0
    7.5052   -0.0963   -0.3425 H   0  0  0  0  0  0  0  0  0  0  0  0
    8.4432    2.4461    1.9174 H   0  0  0  0  0  0  0  0  0  0  0  0
    6.3073    2.8708    2.5330 H   0  0  0  0  0  0  0  0  0  0  0  0
    3.9532    2.2338    2.2224 H   0  0  0  0  0  0  0  0  0  0  0  0
    0.3519    2.3656   -0.3743 H   0  0  0  0  0  0  0  0  0  0  0  0
   -1.8384    1.6966   -0.2394 H   0  0  0  0  0  0  0  0  0  0  0  0
   -2.5668    2.0576    2.0056 H   0  0  0  0  0  0  0  0  0  0  0  0
   -0.8316    1.8629    2.3302 H   0  0  0  0  0  0  0  0  0  0  0  0
   -1.1217   -0.4901    2.8501 H   0  0  0  0  0  0  0  0  0  0  0  0
   -2.5430    0.2403    3.6170 H   0  0  0  0  0  0  0  0  0  0  0  0
   -3.9742   -0.4204    1.7992 H   0  0  0  0  0  0  0  0  0  0  0  0
   -2.8036   -1.7674    1.7551 H   0  0  0  0  0  0  0  0  0  0  0  0
   -3.5354   -2.6129   -0.1792 H   0  0  0  0  0  0  0  0  0  0  0  0
   -3.3968   -2.0991   -3.0366 H   0  0  0  0  0  0  0  0  0  0  0  0
   -3.8566   -3.5746   -2.1830 H   0  0  0  0  0  0  0  0  0  0  0  0
   -5.9111   -3.1095   -3.2360 H   0  0  0  0  0  0  0  0  0  0  0  0
   -5.6374   -1.3561   -3.1804 H   0  0  0  0  0  0  0  0  0  0  0  0
   -7.1777   -1.7291   -1.3358 H   0  0  0  0  0  0  0  0  0  0  0  0
   -6.3117   -3.1901   -0.8198 H   0  0  0  0  0  0  0  0  0  0  0  0
   -5.3530   -0.4242   -0.7891 H   0  0  0  0  0  0  0  0  0  0  0  0
  1  2  2  0  0  0  0
  2  3  1  0  0  0  0
  2  4  1  0  0  0  0
  4  5  1  0  0  0  0
  5  6  1  0  0  0  0
  6  7  2  0  0  0  0
  7  8  1  0  0  0  0
  8  9  2  0  0  0  0
  9 10  1  0  0  0  0
  9 11  1  0  0  0  0
 11 12  2  0  0  0  0
  4 13  1  0  0  0  0
 13 14  1  0  0  0  0
 14 15  2  0  0  0  0
 14 16  1  0  0  0  0
 16 17  1  0  0  0  0
 17 18  1  0  0  0  0
 18 19  1  0  0  0  0
 19 20  1  0  0  0  0
 20 21  1  0  0  0  0
 21 22  2  0  0  0  0
 21 23  1  0  0  0  0
 23 24  1  0  0  0  0
 24 25  1  0  0  0  0
 25 26  1  0  0  0  0
 26 27  1  0  0  0  0
  6 12  1  0  0  0  0
 16 20  1  0  0  0  0
 23 27  1  0  0  0  0
  3 28  1  0  0  0  0
  4 29  1  0  0  0  0
  5 30  1  0  0  0  0
  5 31  1  0  0  0  0
  7 32  1  0  0  0  0
  8 33  1  0  0  0  0
 10 34  1  0  0  0  0
 11 35  1  0  0  0  0
 12 36  1  0  0  0  0
 13 37  1  0  0  0  0
 16 38  1  0  0  0  0
 17 39  1  0  0  0  0
 17 40  1  0  0  0  0
 18 41  1  0  0  0  0
 18 42  1  0  0  0  0
 19 43  1  0  0  0  0
 19 44  1  0  0  0  0
 23 45  1  0  0  0  0
 24 46  1  0  0  0  0
 24 47  1  0  0  0  0
 25 48  1  0  0  0  0
 25 49  1  0  0  0  0
 26 50  1  0  0  0  0
 26 51  1  0  0  0  0
 27 52  1  0  0  0  0
M  END
$$$$
PPY.sdf
  PyMOL2.5          3D                             0

 52 54  0  0  1  0  0  0  0  0999 V2000
    3.7365    0.4560    3.4386 O   0  0  0  0  0  0  0  0  0  0  0  0
    2.7150    0.8009    2.8656 C   0  0  0  0  0  0  0  0  0  0  0  0
    2.4366    2.1186    2.7150 O   0  0  0  0  0  0  0  0  0  0  0  0
    1.6562   -0.1221    2.2574 C   0  0  2  0  0  0  0  0  0  0  0  0
    2.2998   -1.1053    1.2641 C   0  0  0  0  0  0  0  0  0  0  0  0
    2.9112   -0.4492    0.0435 C   0  0  0  0  0  0  0  0  0  0  0  0
    2.1316   -0.2027   -1.0953 C   0  0  0  0  0  0  0  0  0  0  0  0
    2.6867    0.4224   -2.2118 C   0  0  0  0  0  0  0  0  0  0  0  0
    4.0237    0.7984   -2.1956 C   0  0  0  0  0  0  0  0  0  0  0  0
    4.5254    1.4057   -3.3081 O   0  0  0  0  0  0  0  0  0  0  0  0
    4.8180    0.5578   -1.0798 C   0  0  0  0  0  0  0  0  0  0  0  0
    4.2609   -0.0665    0.0387 C   0  0  0  0  0  0  0  0  0  0  0  0
    0.5670    0.6606    1.6656 N   0  0  0  0  0  0  0  0  0  0  0  0
   -0.6846    0.1361    1.4421 C   0  0  0  0  0  0  0  0  0  0  0  0
   -0.9458   -1.0371    1.6925 O   0  0  0  0  0  0  0  0  0  0  0  0
   -1.6828    1.1278    0.8042 C   0  0  2  0  0  0  0  0  0  0  0  0
   -1.9736    2.2993    1.7544 C   0  0  0  0  0  0  0  0  0  0  0  0
   -3.2435    1.8586    2.4730 C   0  0  0  0  0  0  0  0  0  0  0  0
   -4.0246    1.1702    1.3689 C   0  0  0  0  0  0  0  0  0  0  0  0
   -3.0093    0.5656    0.5270 N   0  0  0  0  0  0  0  0  0  0  0  0
   -3.3934   -0.1726   -0.5825 C   0  0  0  0  0  0  0  0  0  0  0  0
   -4.5828   -0.2660   -0.8960 O   0  0  0  0  0  0  0  0  0  0  0  0
   -2.2807   -0.8856   -1.3735 C   0  0  2  0  0  0  0  0  0  0  0  0
   -2.6862   -1.3330   -2.7702 C   0  0  0  0  0  0  0  0  0  0  0  0
   -1.7789   -2.5251   -3.0616 C   0  0  0  0  0  0  0  0  0  0  0  0
   -1.1823   -2.9196   -1.7167 C   0  0  0  0  0  0  0  0  0  0  0  0
   -1.9660   -2.1784   -0.7431 N   0  0  0  0  0  0  0  0  0  0  0  0
    3.1977    2.5654    3.1451 H   0  0  0  0  0  0  0  0  0  0  0  0
    1.2227   -0.6872    3.0919 H   0  0  0  0  0  0  0  0  0  0  0  0
    3.0757   -1.6915    1.7740 H   0  0  0  0  0  0  0  0  0  0  0  0
    1.5547   -1.8380    0.9277 H   0  0  0  0  0  0  0  0  0  0  0  0
    1.0879   -0.5033   -1.1216 H   0  0  0  0  0  0  0  0  0  0  0  0
    2.0814    0.6089   -3.0943 H   0  0  0  0  0  0  0  0  0  0  0  0
    5.4753    1.5592   -3.1759 H   0  0  0  0  0  0  0  0  0  0  0  0
    5.8649    0.8439   -1.0611 H   0  0  0  0  0  0  0  0  0  0  0  0
    4.8911   -0.2563    0.9063 H   0  0  0  0  0  0  0  0  0  0  0  0
    0.7774    1.6330    1.4619 H   0  0  0  0  0  0  0  0  0  0  0  0
   -1.2406    1.4935   -0.1294 H   0  0  0  0  0  0  0  0  0  0  0  0
   -1.1687    2.5307    2.4575 H   0  0  0  0  0  0  0  0  0  0  0  0
   -2.1831    3.2039    1.1699 H   0  0  0  0  0  0  0  0  0  0  0  0
   -3.7920    2.6916    2.9208 H   0  0  0  0  0  0  0  0  0  0  0  0
   -2.9945    1.1427    3.2655 H   0  0  0  0  0  0  0  0  0  0  0  0
   -4.5839    1.8961    0.7672 H   0  0  0  0  0  0  0  0  0  0  0  0
   -4.7178    0.4110    1.7436 H   0  0  0  0  0  0  0  0  0  0  0  0
   -1.3878   -0.2572   -1.4408 H   0  0  0  0  0  0  0  0  0  0  0  0
   -2.5538   -0.5351   -3.5083 H   0  0  0  0  0  0  0  0  0  0  0  0
   -3.7349   -1.6508   -2.8168 H   0  0  0  0  0  0  0  0  0  0  0  0
   -2.3570   -3.3444   -3.5026 H   0  0  0  0  0  0  0  0  0  0  0  0
   -0.9876   -2.2514   -3.7680 H   0  0  0  0  0  0  0  0  0  0  0  0
   -0.1281   -2.6263   -1.6664 H   0  0  0  0  0  0  0  0  0  0  0  0
   -1.2444   -3.9978   -1.5440 H   0  0  0  0  0  0  0  0  0  0  0  0
   -1.4888   -2.0551    0.1561 H   0  0  0  0  0  0  0  0  0  0  0  0
  1  2  2  0  0  0  0
  2  3  1  0  0  0  0
  2  4  1  0  0  0  0
  4  5  1  0  0  0  0
  5  6  1  0  0  0  0
  6  7  2  0  0  0  0
  7  8  1  0  0  0  0
  8  9  2  0  0  0  0
  9 10  1  0  0  0  0
  9 11  1  0  0  0  0
 11 12  2  0  0  0  0
  4 13  1  0  0  0  0
 13 14  1  0  0  0  0
 14 15  2  0  0  0  0
 14 16  1  0  0  0  0
 16 17  1  0  0  0  0
 17 18  1  0  0  0  0
 18 19  1  0  0  0  0
 19 20  1  0  0  0  0
 20 21  1  0  0  0  0
 21 22  2  0  0  0  0
 21 23  1  0  0  0  0
 23 24  1  0  0  0  0
 24 25  1  0  0  0  0
 25 26  1  0  0  0  0
 26 27  1  0  0  0  0
  6 12  1  0  0  0  0
 16 20  1  0  0  0  0
 23 27  1  0  0  0  0
  3 28  1  0  0  0  0
  4 29  1  0  0  0  0
  5 30  1  0  0  0  0
  5 31  1  0  0  0  0
  7 32  1  0  0  0  0
  8 33  1  0  0  0  0
 10 34  1  0  0  0  0
 11 35  1  0  0  0  0
 12 36  1  0  0  0  0
 13 37  1  0  0  0  0
 16 38  1  0  0  0  0
 17 39  1  0  0  0  0
 17 40  1  0  0  0  0
 18 41  1  0  0  0  0
 18 42  1  0  0  0  0
 19 43  1  0  0  0  0
 19 44  1  0  0  0  0
 23 45  1  0  0  0  0
 24 46  1  0  0  0  0
 24 47  1  0  0  0  0
 25 48  1  0  0  0  0
 25 49  1  0  0  0  0
 26 50  1  0  0  0  0
 26 51  1  0  0  0  0
 27 52  1  0  0  0  0
M  END
$$$$
PPY.sdf
  PyMOL2.5          3D                             0

 52 54  0  0  1  0  0  0  0  0999 V2000
    0.1214   -1.2508   -2.7285 O   0  0  0  0  0  0  0  0  0  0  0  0
    0.8898   -0.3166   -2.9116 C   0  0  0  0  0  0  0  0  0  0  0  0
    1.2976    0.0036   -4.1543 O   0  0  0  0  0  0  0  0  0  0  0  0
    1.5189    0.5428   -1.8210 C   0  0  2  0  0  0  0  0  0  0  0  0
    2.7748   -0.1779   -1.3104 C   0  0  0  0  0  0  0  0  0  0  0  0
    3.5008    0.4648   -0.1456 C   0  0  0  0  0  0  0  0  0  0  0  0
    3.5981    1.8555    0.0040 C   0  0  0  0  0  0  0  0  0  0  0  0
    4.2953    2.4082    1.0811 C   0  0  0  0  0  0  0  0  0  0  0  0
    4.9142    1.5765    2.0041 C   0  0  0  0  0  0  0  0  0  0  0  0
    5.5855    2.1590    3.0378 O   0  0  0  0  0  0  0  0  0  0  0  0
    4.8503    0.1953    1.8678 C   0  0  0  0  0  0  0  0  0  0  0  0
    4.1491   -0.3567    0.7924 C   0  0  0  0  0  0  0  0  0  0  0  0
    0.5120    0.6975   -0.7712 N   0  0  0  0  0  0  0  0  0  0  0  0
   -0.0990    1.9110   -0.5284 C   0  0  0  0  0  0  0  0  0  0  0  0
    0.3309    2.9745   -0.9694 O   0  0  0  0  0  0  0  0  0  0  0  0
   -1.2309    1.8513    0.5123 C   0  0  2  0  0  0  0  0  0  0  0  0
   -0.6438    2.0189    1.9176 C   0  0  0  0  0  0  0  0  0  0  0  0
   -1.5589    1.1755    2.7920 C   0  0  0  0  0  0  0  0  0  0  0  0
   -1.8841   -0.0132    1.9026 C   0  0  0  0  0  0  0  0  0  0  0  0
   -1.9065    0.5416    0.5585 N   0  0  0  0  0  0  0  0  0  0  0  0
   -2.7616    0.1741   -0.4703 C   0  0  0  0  0  0  0  0  0  0  0  0
   -2.9210    0.9203   -1.4386 O   0  0  0  0  0  0  0  0  0  0  0  0
   -3.5014   -1.1752   -0.3277 C   0  0  2  0  0  0  0  0  0  0  0  0
   -2.5794   -2.3791   -0.1331 C   0  0  0  0  0  0  0  0  0  0  0  0
   -3.1165   -3.4616   -1.0644 C   0  0  0  0  0  0  0  0  0  0  0  0
   -4.4696   -2.9450   -1.5100 C   0  0  0  0  0  0  0  0  0  0  0  0
   -4.2441   -1.5115   -1.5574 N   0  0  0  0  0  0  0  0  0  0  0  0
    0.7727   -0.5836   -4.7386 H   0  0  0  0  0  0  0  0  0  0  0  0
    1.7611    1.5206   -2.2500 H   0  0  0  0  0  0  0  0  0  0  0  0
    3.4939   -0.2826   -2.1337 H   0  0  0  0  0  0  0  0  0  0  0  0
    2.4932   -1.2000   -1.0199 H   0  0  0  0  0  0  0  0  0  0  0  0
    3.1293    2.5342   -0.7055 H   0  0  0  0  0  0  0  0  0  0  0  0
    4.3552    3.4872    1.1934 H   0  0  0  0  0  0  0  0  0  0  0  0
    5.9876    1.4599    3.5780 H   0  0  0  0  0  0  0  0  0  0  0  0
    5.3369   -0.4641    2.5790 H   0  0  0  0  0  0  0  0  0  0  0  0
    4.1117   -1.4394    0.6909 H   0  0  0  0  0  0  0  0  0  0  0  0
   -0.0500   -0.1199   -0.5550 H   0  0  0  0  0  0  0  0  0  0  0  0
   -1.9775    2.6203    0.2835 H   0  0  0  0  0  0  0  0  0  0  0  0
   -0.6201    3.0676    2.2297 H   0  0  0  0  0  0  0  0  0  0  0  0
    0.3823    1.6343    1.9754 H   0  0  0  0  0  0  0  0  0  0  0  0
   -2.4735    1.7372    3.0178 H   0  0  0  0  0  0  0  0  0  0  0  0
   -1.0950    0.8810    3.7373 H   0  0  0  0  0  0  0  0  0  0  0  0
   -2.8322   -0.4802    2.1773 H   0  0  0  0  0  0  0  0  0  0  0  0
   -1.0838   -0.7599    1.9388 H   0  0  0  0  0  0  0  0  0  0  0  0
   -4.2156   -1.0926    0.5003 H   0  0  0  0  0  0  0  0  0  0  0  0
   -1.5316   -2.1635   -0.3691 H   0  0  0  0  0  0  0  0  0  0  0  0
   -2.6236   -2.7271    0.9052 H   0  0  0  0  0  0  0  0  0  0  0  0
   -3.1867   -4.4345   -0.5686 H   0  0  0  0  0  0  0  0  0  0  0  0
   -2.4464   -3.5700   -1.9263 H   0  0  0  0  0  0  0  0  0  0  0  0
   -4.7620   -3.3468   -2.4840 H   0  0  0  0  0  0  0  0  0  0  0  0
   -5.2472   -3.1933   -0.7785 H   0  0  0  0  0  0  0  0  0  0  0  0
   -5.1006   -0.9678   -1.6313 H   0  0  0  0  0  0  0  0  0  0  0  0
  1  2  2  0  0  0  0
  2  3  1  0  0  0  0
  2  4  1  0  0  0  0
  4  5  1  0  0  0  0
  5  6  1  0  0  0  0
  6  7  2  0  0  0  0
  7  8  1  0  0  0  0
  8  9  2  0  0  0  0
  9 10  1  0  0  0  0
  9 11  1  0  0  0  0
 11 12  2  0  0  0  0
  4 13  1  0  0  0  0
 13 14  1  0  0  0  0
 14 15  2  0  0  0  0
 14 16  1  0  0  0  0
 16 17  1  0  0  0  0
 17 18  1  0  0  0  0
 18 19  1  0  0  0  0
 19 20  1  0  0  0  0
 20 21  1  0  0  0  0
 21 22  2  0  0  0  0
 21 23  1  0  0  0  0
 23 24  1  0  0  0  0
 24 25  1  0  0  0  0
 25 26  1  0  0  0  0
 26 27  1  0  0  0  0
  6 12  1  0  0  0  0
 16 20  1  0  0  0  0
 23 27  1  0  0  0  0
  3 28  1  0  0  0  0
  4 29  1  0  0  0  0
  5 30  1  0  0  0  0
  5 31  1  0  0  0  0
  7 32  1  0  0  0  0
  8 33  1  0  0  0  0
 10 34  1  0  0  0  0
 11 35  1  0  0  0  0
 12 36  1  0  0  0  0
 13 37  1  0  0  0  0
 16 38  1  0  0  0  0
 17 39  1  0  0  0  0
 17 40  1  0  0  0  0
 18 41  1  0  0  0  0
 18 42  1  0  0  0  0
 19 43  1  0  0  0  0
 19 44  1  0  0  0  0
 23 45  1  0  0  0  0
 24 46  1  0  0  0  0
 24 47  1  0  0  0  0
 25 48  1  0  0  0  0
 25 49  1  0  0  0  0
 26 50  1  0  0  0  0
 26 51  1  0  0  0  0
 27 52  1  0  0  0  0
M  END
$$$$
PPY.sdf
  PyMOL2.5          3D                             0

 52 54  0  0  1  0  0  0  0  0999 V2000
    2.1120    4.1453   -0.1809 O   0  0  0  0  0  0  0  0  0  0  0  0
    2.4872    3.2394    0.5516 C   0  0  0  0  0  0  0  0  0  0  0  0
    3.4609    3.4508    1.4568 O   0  0  0  0  0  0  0  0  0  0  0  0
    1.9380    1.8181    0.5589 C   0  0  2  0  0  0  0  0  0  0  0  0
    2.6057    0.9869   -0.5469 C   0  0  0  0  0  0  0  0  0  0  0  0
    4.0568    0.6708   -0.2704 C   0  0  0  0  0  0  0  0  0  0  0  0
    5.0785    1.3230   -0.9757 C   0  0  0  0  0  0  0  0  0  0  0  0
    6.4189    1.0340   -0.7094 C   0  0  0  0  0  0  0  0  0  0  0  0
    6.7361    0.0917    0.2636 C   0  0  0  0  0  0  0  0  0  0  0  0
    8.0313   -0.2204    0.5544 O   0  0  0  0  0  0  0  0  0  0  0  0
    5.7370   -0.5648    0.9710 C   0  0  0  0  0  0  0  0  0  0  0  0
    4.3979   -0.2776    0.7044 C   0  0  0  0  0  0  0  0  0  0  0  0
    0.4912    1.9274    0.3409 N   0  0  0  0  0  0  0  0  0  0  0  0
   -0.3514    0.8699    0.6158 C   0  0  0  0  0  0  0  0  0  0  0  0
    0.0424   -0.1498    1.1780 O   0  0  0  0  0  0  0  0  0  0  0  0
   -1.8263    1.1302    0.2384 C   0  0  2  0  0  0  0  0  0  0  0  0
   -2.5815    1.7363    1.4188 C   0  0  0  0  0  0  0  0  0  0  0  0
   -3.0680    0.5079    2.1811 C   0  0  0  0  0  0  0  0  0  0  0  0
   -3.3763   -0.5031    1.0813 C   0  0  0  0  0  0  0  0  0  0  0  0
   -2.5381   -0.1090   -0.0410 N   0  0  0  0  0  0  0  0  0  0  0  0
   -2.3642   -0.7410   -1.2506 C   0  0  0  0  0  0  0  0  0  0  0  0
   -1.6058   -0.2562   -2.1010 O   0  0  0  0  0  0  0  0  0  0  0  0
   -3.1574   -2.0130   -1.5949 C   0  0  2  0  0  0  0  0  0  0  0  0
   -4.6513   -1.7842   -1.8043 C   0  0  0  0  0  0  0  0  0  0  0  0
   -5.3332   -2.8964   -1.0160 C   0  0  0  0  0  0  0  0  0  0  0  0
   -4.2305   -3.9067   -0.7605 C   0  0  0  0  0  0  0  0  0  0  0  0
   -3.0651   -3.0559   -0.5538 N   0  0  0  0  0  0  0  0  0  0  0  0
    3.7220    4.3866    1.3346 H   0  0  0  0  0  0  0  0  0  0  0  0
    2.0891    1.3761    1.5506 H   0  0  0  0  0  0  0  0  0  0  0  0
    2.5186    1.5064   -1.5109 H   0  0  0  0  0  0  0  0  0  0  0  0
    2.0753    0.0356   -0.6851 H   0  0  0  0  0  0  0  0  0  0  0  0
    4.8377    2.0593   -1.7396 H   0  0  0  0  0  0  0  0  0  0  0  0
    7.1939    1.5490   -1.2677 H   0  0  0  0  0  0  0  0  0  0  0  0
    8.6110    0.2959   -0.0286 H   0  0  0  0  0  0  0  0  0  0  0  0
    5.9981   -1.3003    1.7264 H   0  0  0  0  0  0  0  0  0  0  0  0
    3.6214   -0.8013    1.2597 H   0  0  0  0  0  0  0  0  0  0  0  0
    0.1779    2.6561   -0.2932 H   0  0  0  0  0  0  0  0  0  0  0  0
   -1.8625    1.7876   -0.6380 H   0  0  0  0  0  0  0  0  0  0  0  0
   -3.4470    2.3040    1.0558 H   0  0  0  0  0  0  0  0  0  0  0  0
   -1.9729    2.3969    2.0433 H   0  0  0  0  0  0  0  0  0  0  0  0
   -3.9357    0.7155    2.8137 H   0  0  0  0  0  0  0  0  0  0  0  0
   -2.2662    0.1276    2.8253 H   0  0  0  0  0  0  0  0  0  0  0  0
   -4.4232   -0.4375    0.7728 H   0  0  0  0  0  0  0  0  0  0  0  0
   -3.1536   -1.5188    1.4119 H   0  0  0  0  0  0  0  0  0  0  0  0
   -2.7261   -2.4194   -2.5200 H   0  0  0  0  0  0  0  0  0  0  0  0
   -4.8946   -1.8835   -2.8690 H   0  0  0  0  0  0  0  0  0  0  0  0
   -5.0012   -0.7986   -1.4820 H   0  0  0  0  0  0  0  0  0  0  0  0
   -5.7127   -2.4991   -0.0667 H   0  0  0  0  0  0  0  0  0  0  0  0
   -6.1771   -3.3303   -1.5606 H   0  0  0  0  0  0  0  0  0  0  0  0
   -4.4386   -4.5295    0.1138 H   0  0  0  0  0  0  0  0  0  0  0  0
   -4.0855   -4.5577   -1.6304 H   0  0  0  0  0  0  0  0  0  0  0  0
   -2.1927   -3.5741   -0.6512 H   0  0  0  0  0  0  0  0  0  0  0  0
  1  2  2  0  0  0  0
  2  3  1  0  0  0  0
  2  4  1  0  0  0  0
  4  5  1  0  0  0  0
  5  6  1  0  0  0  0
  6  7  2  0  0  0  0
  7  8  1  0  0  0  0
  8  9  2  0  0  0  0
  9 10  1  0  0  0  0
  9 11  1  0  0  0  0
 11 12  2  0  0  0  0
  4 13  1  0  0  0  0
 13 14  1  0  0  0  0
 14 15  2  0  0  0  0
 14 16  1  0  0  0  0
 16 17  1  0  0  0  0
 17 18  1  0  0  0  0
 18 19  1  0  0  0  0
 19 20  1  0  0  0  0
 20 21  1  0  0  0  0
 21 22  2  0  0  0  0
 21 23  1  0  0  0  0
 23 24  1  0  0  0  0
 24 25  1  0  0  0  0
 25 26  1  0  0  0  0
 26 27  1  0  0  0  0
  6 12  1  0  0  0  0
 16 20  1  0  0  0  0
 23 27  1  0  0  0  0
  3 28  1  0  0  0  0
  4 29  1  0  0  0  0
  5 30  1  0  0  0  0
  5 31  1  0  0  0  0
  7 32  1  0  0  0  0
  8 33  1  0  0  0  0
 10 34  1  0  0  0  0
 11 35  1  0  0  0  0
 12 36  1  0  0  0  0
 13 37  1  0  0  0  0
 16 38  1  0  0  0  0
 17 39  1  0  0  0  0
 17 40  1  0  0  0  0
 18 41  1  0  0  0  0
 18 42  1  0  0  0  0
 19 43  1  0  0  0  0
 19 44  1  0  0  0  0
 23 45  1  0  0  0  0
 24 46  1  0  0  0  0
 24 47  1  0  0  0  0
 25 48  1  0  0  0  0
 25 49  1  0  0  0  0
 26 50  1  0  0  0  0
 26 51  1  0  0  0  0
 27 52  1  0  0  0  0
M  END
$$$$
PPY.sdf
  PyMOL2.5          3D                             0

 52 54  0  0  1  0  0  0  0  0999 V2000
    1.1125    1.6355   -2.5646 O   0  0  0  0  0  0  0  0  0  0  0  0
    1.7567    1.8011   -1.5372 C   0  0  0  0  0  0  0  0  0  0  0  0
    2.9161    2.4829   -1.5553 O   0  0  0  0  0  0  0  0  0  0  0  0
    1.3543    1.3042   -0.1530 C   0  0  2  0  0  0  0  0  0  0  0  0
    1.8858   -0.1159    0.0845 C   0  0  0  0  0  0  0  0  0  0  0  0
    3.3784   -0.1703    0.3072 C   0  0  0  0  0  0  0  0  0  0  0  0
    3.9266    0.2646    1.5233 C   0  0  0  0  0  0  0  0  0  0  0  0
    5.3068    0.2292    1.7319 C   0  0  0  0  0  0  0  0  0  0  0  0
    6.1389   -0.2428    0.7225 C   0  0  0  0  0  0  0  0  0  0  0  0
    7.4920   -0.2944    0.8832 O   0  0  0  0  0  0  0  0  0  0  0  0
    5.6134   -0.6806   -0.4869 C   0  0  0  0  0  0  0  0  0  0  0  0
    4.2340   -0.6464   -0.6959 C   0  0  0  0  0  0  0  0  0  0  0  0
   -0.1140    1.3478   -0.1046 N   0  0  0  0  0  0  0  0  0  0  0  0
   -0.8079    1.3525    1.0838 C   0  0  0  0  0  0  0  0  0  0  0  0
   -0.2474    1.3183    2.1743 O   0  0  0  0  0  0  0  0  0  0  0  0
   -2.3202    1.5486    0.9172 C   0  0  2  0  0  0  0  0  0  0  0  0
   -3.1210    1.6397    2.2111 C   0  0  0  0  0  0  0  0  0  0  0  0
   -4.5759    1.5941    1.7256 C   0  0  0  0  0  0  0  0  0  0  0  0
   -4.4948    1.1781    0.2504 C   0  0  0  0  0  0  0  0  0  0  0  0
   -3.1371    0.6702    0.0664 N   0  0  0  0  0  0  0  0  0  0  0  0
   -3.0505   -0.7237    0.2810 C   0  0  0  0  0  0  0  0  0  0  0  0
   -3.9428   -1.3640    0.8446 O   0  0  0  0  0  0  0  0  0  0  0  0
   -1.7924   -1.4346   -0.2769 C   0  0  2  0  0  0  0  0  0  0  0  0
   -1.5786   -1.1805   -1.7700 C   0  0  0  0  0  0  0  0  0  0  0  0
   -1.7451   -2.5358   -2.4429 C   0  0  0  0  0  0  0  0  0  0  0  0
   -2.5171   -3.3533   -1.4329 C   0  0  0  0  0  0  0  0  0  0  0  0
   -1.9492   -2.9079   -0.1628 N   0  0  0  0  0  0  0  0  0  0  0  0
    3.0642    2.7185   -2.4945 H   0  0  0  0  0  0  0  0  0  0  0  0
    1.7222    2.0106    0.6004 H   0  0  0  0  0  0  0  0  0  0  0  0
    1.4020   -0.5636    0.9623 H   0  0  0  0  0  0  0  0  0  0  0  0
    1.6158   -0.7666   -0.7577 H   0  0  0  0  0  0  0  0  0  0  0  0
    3.2776    0.6304    2.3176 H   0  0  0  0  0  0  0  0  0  0  0  0
    5.7082    0.5702    2.6808 H   0  0  0  0  0  0  0  0  0  0  0  0
    7.7069    0.0180    1.7773 H   0  0  0  0  0  0  0  0  0  0  0  0
    6.2761   -1.0506   -1.2639 H   0  0  0  0  0  0  0  0  0  0  0  0
    3.8362   -0.9960   -1.6457 H   0  0  0  0  0  0  0  0  0  0  0  0
   -0.6175    1.4084   -0.9866 H   0  0  0  0  0  0  0  0  0  0  0  0
   -2.3856    2.5387    0.4349 H   0  0  0  0  0  0  0  0  0  0  0  0
   -2.9015    2.5508    2.7766 H   0  0  0  0  0  0  0  0  0  0  0  0
   -2.9144    0.7840    2.8650 H   0  0  0  0  0  0  0  0  0  0  0  0
   -5.0710    2.5653    1.8274 H   0  0  0  0  0  0  0  0  0  0  0  0
   -5.1479    0.8671    2.3122 H   0  0  0  0  0  0  0  0  0  0  0  0
   -5.2670    0.4547   -0.0305 H   0  0  0  0  0  0  0  0  0  0  0  0
   -4.6054    2.0575   -0.3954 H   0  0  0  0  0  0  0  0  0  0  0  0
   -0.9313   -1.1508    0.3275 H   0  0  0  0  0  0  0  0  0  0  0  0
   -0.5770   -0.7913   -1.9766 H   0  0  0  0  0  0  0  0  0  0  0  0
   -2.3045   -0.4719   -2.1830 H   0  0  0  0  0  0  0  0  0  0  0  0
   -0.7601   -2.9835   -2.6251 H   0  0  0  0  0  0  0  0  0  0  0  0
   -2.2637   -2.4592   -3.4032 H   0  0  0  0  0  0  0  0  0  0  0  0
   -3.5887   -3.1277   -1.4821 H   0  0  0  0  0  0  0  0  0  0  0  0
   -2.3799   -4.4280   -1.5803 H   0  0  0  0  0  0  0  0  0  0  0  0
   -2.6153   -3.1016    0.5930 H   0  0  0  0  0  0  0  0  0  0  0  0
  1  2  2  0  0  0  0
  2  3  1  0  0  0  0
  2  4  1  0  0  0  0
  4  5  1  0  0  0  0
  5  6  1  0  0  0  0
  6  7  2  0  0  0  0
  7  8  1  0  0  0  0
  8  9  2  0  0  0  0
  9 10  1  0  0  0  0
  9 11  1  0  0  0  0
 11 12  2  0  0  0  0
  4 13  1  0  0  0  0
 13 14  1  0  0  0  0
 14 15  2  0  0  0  0
 14 16  1  0  0  0  0
 16 17  1  0  0  0  0
 17 18  1  0  0  0  0
 18 19  1  0  0  0  0
 19 20  1  0  0  0  0
 20 21  1  0  0  0  0
 21 22  2  0  0  0  0
 21 23  1  0  0  0  0
 23 24  1  0  0  0  0
 24 25  1  0  0  0  0
 25 26  1  0  0  0  0
 26 27  1  0  0  0  0
  6 12  1  0  0  0  0
 16 20  1  0  0  0  0
 23 27  1  0  0  0  0
  3 28  1  0  0  0  0
  4 29  1  0  0  0  0
  5 30  1  0  0  0  0
  5 31  1  0  0  0  0
  7 32  1  0  0  0  0
  8 33  1  0  0  0  0
 10 34  1  0  0  0  0
 11 35  1  0  0  0  0
 12 36  1  0  0  0  0
 13 37  1  0  0  0  0
 16 38  1  0  0  0  0
 17 39  1  0  0  0  0
 17 40  1  0  0  0  0
 18 41  1  0  0  0  0
 18 42  1  0  0  0  0
 19 43  1  0  0  0  0
 19 44  1  0  0  0  0
 23 45  1  0  0  0  0
 24 46  1  0  0  0  0
 24 47  1  0  0  0  0
 25 48  1  0  0  0  0
 25 49  1  0  0  0  0
 26 50  1  0  0  0  0
 26 51  1  0  0  0  0
 27 52  1  0  0  0  0
M  END
$$$$
PPY.sdf
  PyMOL2.5          3D                             0

 52 54  0  0  1  0  0  0  0  0999 V2000
    3.1984    3.4331    0.1929 O   0  0  0  0  0  0  0  0  0  0  0  0
    2.1143    2.8754    0.1101 C   0  0  0  0  0  0  0  0  0  0  0  0
    1.0728    3.5435   -0.4369 O   0  0  0  0  0  0  0  0  0  0  0  0
    1.7929    1.4302    0.5240 C   0  0  2  0  0  0  0  0  0  0  0  0
    2.6321    0.4540   -0.3145 C   0  0  0  0  0  0  0  0  0  0  0  0
    3.9783    0.1452    0.2999 C   0  0  0  0  0  0  0  0  0  0  0  0
    5.1272    0.8421   -0.0987 C   0  0  0  0  0  0  0  0  0  0  0  0
    6.3656    0.5610    0.4832 C   0  0  0  0  0  0  0  0  0  0  0  0
    6.4543   -0.4195    1.4654 C   0  0  0  0  0  0  0  0  0  0  0  0
    7.6432   -0.7241    2.0596 O   0  0  0  0  0  0  0  0  0  0  0  0
    5.3268   -1.1196    1.8748 C   0  0  0  0  0  0  0  0  0  0  0  0
    4.0891   -0.8368    1.2955 C   0  0  0  0  0  0  0  0  0  0  0  0
    0.3664    1.1419    0.3294 N   0  0  0  0  0  0  0  0  0  0  0  0
   -0.5630    1.4549    1.2966 C   0  0  0  0  0  0  0  0  0  0  0  0
   -0.2340    1.8825    2.4021 O   0  0  0  0  0  0  0  0  0  0  0  0
   -2.0422    1.3784    0.8358 C   0  0  2  0  0  0  0  0  0  0  0  0
   -2.9725    1.3512    2.0580 C   0  0  0  0  0  0  0  0  0  0  0  0
   -4.1540    0.5188    1.5951 C   0  0  0  0  0  0  0  0  0  0  0  0
   -3.4942   -0.5357    0.7236 C   0  0  0  0  0  0  0  0  0  0  0  0
   -2.4114    0.1737    0.0597 N   0  0  0  0  0  0  0  0  0  0  0  0
   -2.0012    0.0312   -1.2520 C   0  0  0  0  0  0  0  0  0  0  0  0
   -1.3051    0.9117   -1.7767 O   0  0  0  0  0  0  0  0  0  0  0  0
   -2.3624   -1.2186   -2.0785 C   0  0  2  0  0  0  0  0  0  0  0  0
   -3.7687   -1.2384   -2.6522 C   0  0  0  0  0  0  0  0  0  0  0  0
   -4.1143   -2.7152   -2.6768 C   0  0  0  0  0  0  0  0  0  0  0  0
   -3.3947   -3.2743   -1.4644 C   0  0  0  0  0  0  0  0  0  0  0  0
   -2.1658   -2.4922   -1.3496 N   0  0  0  0  0  0  0  0  0  0  0  0
    1.4389    4.4324   -0.6251 H   0  0  0  0  0  0  0  0  0  0  0  0
    2.0117    1.3416    1.5944 H   0  0  0  0  0  0  0  0  0  0  0  0
    2.7704    0.8334   -1.3358 H   0  0  0  0  0  0  0  0  0  0  0  0
    2.0987   -0.4997   -0.4326 H   0  0  0  0  0  0  0  0  0  0  0  0
    5.0646    1.6188   -0.8583 H   0  0  0  0  0  0  0  0  0  0  0  0
    7.2396    1.1178    0.1612 H   0  0  0  0  0  0  0  0  0  0  0  0
    8.3259   -0.1379    1.6949 H   0  0  0  0  0  0  0  0  0  0  0  0
    5.4098   -1.8807    2.6451 H   0  0  0  0  0  0  0  0  0  0  0  0
    3.2118   -1.3878    1.6274 H   0  0  0  0  0  0  0  0  0  0  0  0
    0.0184    1.2284   -0.6280 H   0  0  0  0  0  0  0  0  0  0  0  0
   -2.2501    2.2611    0.2181 H   0  0  0  0  0  0  0  0  0  0  0  0
   -2.4987    0.8576    2.9157 H   0  0  0  0  0  0  0  0  0  0  0  0
   -3.2673    2.3565    2.3744 H   0  0  0  0  0  0  0  0  0  0  0  0
   -4.7234    0.0870    2.4225 H   0  0  0  0  0  0  0  0  0  0  0  0
   -4.8316    1.1372    0.9939 H   0  0  0  0  0  0  0  0  0  0  0  0
   -4.2107   -0.9720    0.0329 H   0  0  0  0  0  0  0  0  0  0  0  0
   -3.0489   -1.3246    1.3392 H   0  0  0  0  0  0  0  0  0  0  0  0
   -1.6476   -1.2451   -2.9120 H   0  0  0  0  0  0  0  0  0  0  0  0
   -4.4834   -0.6798   -2.0410 H   0  0  0  0  0  0  0  0  0  0  0  0
   -3.8031   -0.8090   -3.6592 H   0  0  0  0  0  0  0  0  0  0  0  0
   -5.1936   -2.8892   -2.6416 H   0  0  0  0  0  0  0  0  0  0  0  0
   -3.7231   -3.1738   -3.5933 H   0  0  0  0  0  0  0  0  0  0  0  0
   -4.0097   -3.1518   -0.5670 H   0  0  0  0  0  0  0  0  0  0  0  0
   -3.1762   -4.3402   -1.5771 H   0  0  0  0  0  0  0  0  0  0  0  0
   -1.9000   -2.3348   -0.3797 H   0  0  0  0  0  0  0  0  0  0  0  0
  1  2  2  0  0  0  0
  2  3  1  0  0  0  0
  2  4  1  0  0  0  0
  4  5  1  0  0  0  0
  5  6  1  0  0  0  0
  6  7  2  0  0  0  0
  7  8  1  0  0  0  0
  8  9  2  0  0  0  0
  9 10  1  0  0  0  0
  9 11  1  0  0  0  0
 11 12  2  0  0  0  0
  4 13  1  0  0  0  0
 13 14  1  0  0  0  0
 14 15  2  0  0  0  0
 14 16  1  0  0  0  0
 16 17  1  0  0  0  0
 17 18  1  0  0  0  0
 18 19  1  0  0  0  0
 19 20  1  0  0  0  0
 20 21  1  0  0  0  0
 21 22  2  0  0  0  0
 21 23  1  0  0  0  0
 23 24  1  0  0  0  0
 24 25  1  0  0  0  0
 25 26  1  0  0  0  0
 26 27  1  0  0  0  0
  6 12  1  0  0  0  0
 16 20  1  0  0  0  0
 23 27  1  0  0  0  0
  3 28  1  0  0  0  0
  4 29  1  0  0  0  0
  5 30  1  0  0  0  0
  5 31  1  0  0  0  0
  7 32  1  0  0  0  0
  8 33  1  0  0  0  0
 10 34  1  0  0  0  0
 11 35  1  0  0  0  0
 12 36  1  0  0  0  0
 13 37  1  0  0  0  0
 16 38  1  0  0  0  0
 17 39  1  0  0  0  0
 17 40  1  0  0  0  0
 18 41  1  0  0  0  0
 18 42  1  0  0  0  0
 19 43  1  0  0  0  0
 19 44  1  0  0  0  0
 23 45  1  0  0  0  0
 24 46  1  0  0  0  0
 24 47  1  0  0  0  0
 25 48  1  0  0  0  0
 25 49  1  0  0  0  0
 26 50  1  0  0  0  0
 26 51  1  0  0  0  0
 27 52  1  0  0  0  0
M  END
$$$$
PPY.sdf
  PyMOL2.5          3D                             0

 52 54  0  0  1  0  0  0  0  0999 V2000
    0.6583    4.9802    0.7140 O   0  0  0  0  0  0  0  0  0  0  0  0
    1.4434    4.2445    1.2955 C   0  0  0  0  0  0  0  0  0  0  0  0
    2.3444    4.7485    2.1607 O   0  0  0  0  0  0  0  0  0  0  0  0
    1.5532    2.7349    1.1193 C   0  0  2  0  0  0  0  0  0  0  0  0
    2.7650    2.4224    0.2220 C   0  0  0  0  0  0  0  0  0  0  0  0
    2.8543    0.9748   -0.2063 C   0  0  0  0  0  0  0  0  0  0  0  0
    2.9025   -0.0528    0.7476 C   0  0  0  0  0  0  0  0  0  0  0  0
    2.8502   -1.3878    0.3496 C   0  0  0  0  0  0  0  0  0  0  0  0
    2.7677   -1.6927   -1.0030 C   0  0  0  0  0  0  0  0  0  0  0  0
    2.5578   -2.9799   -1.3996 O   0  0  0  0  0  0  0  0  0  0  0  0
    2.8054   -0.6971   -1.9681 C   0  0  0  0  0  0  0  0  0  0  0  0
    2.8442    0.6393   -1.5697 C   0  0  0  0  0  0  0  0  0  0  0  0
    0.2894    2.2620    0.5357 N   0  0  0  0  0  0  0  0  0  0  0  0
   -0.4276    1.2210    1.0880 C   0  0  0  0  0  0  0  0  0  0  0  0
   -0.0732    0.6428    2.1118 O   0  0  0  0  0  0  0  0  0  0  0  0
   -1.7074    0.8468    0.3031 C   0  0  2  0  0  0  0  0  0  0  0  0
   -2.7961    1.8982    0.5292 C   0  0  0  0  0  0  0  0  0  0  0  0
   -3.4919    1.4004    1.7935 C   0  0  0  0  0  0  0  0  0  0  0  0
   -3.4747   -0.1127    1.6322 C   0  0  0  0  0  0  0  0  0  0  0  0
   -2.3250   -0.3903    0.7900 N   0  0  0  0  0  0  0  0  0  0  0  0
   -1.9269   -1.6894    0.5492 C   0  0  0  0  0  0  0  0  0  0  0  0
   -2.5138   -2.6485    1.0596 O   0  0  0  0  0  0  0  0  0  0  0  0
   -0.7277   -1.9057   -0.4034 C   0  0  2  0  0  0  0  0  0  0  0  0
   -1.1272   -1.7287   -1.8678 C   0  0  0  0  0  0  0  0  0  0  0  0
   -0.8590   -3.0740   -2.5233 C   0  0  0  0  0  0  0  0  0  0  0  0
   -0.8604   -4.0493   -1.3675 C   0  0  0  0  0  0  0  0  0  0  0  0
   -0.1951   -3.2980   -0.2978 N   0  0  0  0  0  0  0  0  0  0  0  0
    2.1559    5.7107    2.1874 H   0  0  0  0  0  0  0  0  0  0  0  0
    1.6741    2.2886    2.1126 H   0  0  0  0  0  0  0  0  0  0  0  0
    3.6946    2.6910    0.7405 H   0  0  0  0  0  0  0  0  0  0  0  0
    2.7281    3.0623   -0.6702 H   0  0  0  0  0  0  0  0  0  0  0  0
    2.9230    0.1743    1.8115 H   0  0  0  0  0  0  0  0  0  0  0  0
    2.8302   -2.1763    1.0960 H   0  0  0  0  0  0  0  0  0  0  0  0
    1.7944   -3.2964   -0.8639 H   0  0  0  0  0  0  0  0  0  0  0  0
    2.7559   -0.9589   -3.0206 H   0  0  0  0  0  0  0  0  0  0  0  0
    2.8328    1.4142   -2.3323 H   0  0  0  0  0  0  0  0  0  0  0  0
   -0.1018    2.8074   -0.2241 H   0  0  0  0  0  0  0  0  0  0  0  0
   -1.4494    0.7534   -0.7554 H   0  0  0  0  0  0  0  0  0  0  0  0
   -3.5065    1.8836   -0.3066 H   0  0  0  0  0  0  0  0  0  0  0  0
   -2.4208    2.9192    0.6428 H   0  0  0  0  0  0  0  0  0  0  0  0
   -2.9110    1.6905    2.6772 H   0  0  0  0  0  0  0  0  0  0  0  0
   -4.5039    1.7987    1.9080 H   0  0  0  0  0  0  0  0  0  0  0  0
   -3.3920   -0.6376    2.5889 H   0  0  0  0  0  0  0  0  0  0  0  0
   -4.3691   -0.4688    1.1092 H   0  0  0  0  0  0  0  0  0  0  0  0
    0.0626   -1.2125   -0.1162 H   0  0  0  0  0  0  0  0  0  0  0  0
   -2.1860   -1.4664   -1.9750 H   0  0  0  0  0  0  0  0  0  0  0  0
   -0.5356   -0.9475   -2.3571 H   0  0  0  0  0  0  0  0  0  0  0  0
    0.1219   -3.0612   -3.0137 H   0  0  0  0  0  0  0  0  0  0  0  0
   -1.6099   -3.3213   -3.2795 H   0  0  0  0  0  0  0  0  0  0  0  0
   -0.3182   -4.9691   -1.6038 H   0  0  0  0  0  0  0  0  0  0  0  0
   -1.8847   -4.3131   -1.0797 H   0  0  0  0  0  0  0  0  0  0  0  0
   -0.5146   -3.6740    0.6040 H   0  0  0  0  0  0  0  0  0  0  0  0
  1  2  2  0  0  0  0
  2  3  1  0  0  0  0
  2  4  1  0  0  0  0
  4  5  1  0  0  0  0
  5  6  1  0  0  0  0
  6  7  2  0  0  0  0
  7  8  1  0  0  0  0
  8  9  2  0  0  0  0
  9 10  1  0  0  0  0
  9 11  1  0  0  0  0
 11 12  2  0  0  0  0
  4 13  1  0  0  0  0
 13 14  1  0  0  0  0
 14 15  2  0  0  0  0
 14 16  1  0  0  0  0
 16 17  1  0  0  0  0
 17 18  1  0  0  0  0
 18 19  1  0  0  0  0
 19 20  1  0  0  0  0
 20 21  1  0  0  0  0
 21 22  2  0  0  0  0
 21 23  1  0  0  0  0
 23 24  1  0  0  0  0
 24 25  1  0  0  0  0
 25 26  1  0  0  0  0
 26 27  1  0  0  0  0
  6 12  1  0  0  0  0
 16 20  1  0  0  0  0
 23 27  1  0  0  0  0
  3 28  1  0  0  0  0
  4 29  1  0  0  0  0
  5 30  1  0  0  0  0
  5 31  1  0  0  0  0
  7 32  1  0  0  0  0
  8 33  1  0  0  0  0
 10 34  1  0  0  0  0
 11 35  1  0  0  0  0
 12 36  1  0  0  0  0
 13 37  1  0  0  0  0
 16 38  1  0  0  0  0
 17 39  1  0  0  0  0
 17 40  1  0  0  0  0
 18 41  1  0  0  0  0
 18 42  1  0  0  0  0
 19 43  1  0  0  0  0
 19 44  1  0  0  0  0
 23 45  1  0  0  0  0
 24 46  1  0  0  0  0
 24 47  1  0  0  0  0
 25 48  1  0  0  0  0
 25 49  1  0  0  0  0
 26 50  1  0  0  0  0
 26 51  1  0  0  0  0
 27 52  1  0  0  0  0
M  END
$$$$
PPY.sdf
  PyMOL2.5          3D                             0

 52 54  0  0  1  0  0  0  0  0999 V2000
    1.8345   -0.4841   -2.7696 O   0  0  0  0  0  0  0  0  0  0  0  0
    2.0320    0.6551   -2.3727 C   0  0  0  0  0  0  0  0  0  0  0  0
    2.8720    1.4699   -3.0423 O   0  0  0  0  0  0  0  0  0  0  0  0
    1.4062    1.3062   -1.1448 C   0  0  2  0  0  0  0  0  0  0  0  0
    2.0434    0.7356    0.1305 C   0  0  0  0  0  0  0  0  0  0  0  0
    3.4871    1.1387    0.3154 C   0  0  0  0  0  0  0  0  0  0  0  0
    3.8085    2.4360    0.7388 C   0  0  0  0  0  0  0  0  0  0  0  0
    5.1417    2.8153    0.8984 C   0  0  0  0  0  0  0  0  0  0  0  0
    6.1542    1.9011    0.6356 C   0  0  0  0  0  0  0  0  0  0  0  0
    7.4429    2.3135    0.8052 O   0  0  0  0  0  0  0  0  0  0  0  0
    5.8564    0.6094    0.2139 C   0  0  0  0  0  0  0  0  0  0  0  0
    4.5220    0.2292    0.0536 C   0  0  0  0  0  0  0  0  0  0  0  0
   -0.0309    1.0359   -1.1745 N   0  0  0  0  0  0  0  0  0  0  0  0
   -0.9255    1.7955   -0.4522 C   0  0  0  0  0  0  0  0  0  0  0  0
   -0.5836    2.8003    0.1671 O   0  0  0  0  0  0  0  0  0  0  0  0
   -2.3742    1.2583   -0.4817 C   0  0  2  0  0  0  0  0  0  0  0  0
   -3.3722    2.2428    0.1338 C   0  0  0  0  0  0  0  0  0  0  0  0
   -3.4022    1.8395    1.6044 C   0  0  0  0  0  0  0  0  0  0  0  0
   -3.3035    0.3238    1.5380 C   0  0  0  0  0  0  0  0  0  0  0  0
   -2.4936    0.0613    0.3581 N   0  0  0  0  0  0  0  0  0  0  0  0
   -2.0883   -1.1797   -0.0899 C   0  0  0  0  0  0  0  0  0  0  0  0
   -1.4983   -1.2927   -1.1688 O   0  0  0  0  0  0  0  0  0  0  0  0
   -2.3559   -2.3965    0.8314 C   0  0  2  0  0  0  0  0  0  0  0  0
   -1.7393   -3.6868    0.3055 C   0  0  0  0  0  0  0  0  0  0  0  0
   -2.8011   -4.2840   -0.6097 C   0  0  0  0  0  0  0  0  0  0  0  0
   -4.0580   -3.4661   -0.3579 C   0  0  0  0  0  0  0  0  0  0  0  0
   -3.8044   -2.7174    0.8807 N   0  0  0  0  0  0  0  0  0  0  0  0
    3.1907    0.9268   -3.7922 H   0  0  0  0  0  0  0  0  0  0  0  0
    1.5417    2.3927   -1.2044 H   0  0  0  0  0  0  0  0  0  0  0  0
    1.4838    1.0651    1.0161 H   0  0  0  0  0  0  0  0  0  0  0  0
    1.9636   -0.3602    0.1341 H   0  0  0  0  0  0  0  0  0  0  0  0
    3.0219    3.1591    0.9475 H   0  0  0  0  0  0  0  0  0  0  0  0
    5.3882    3.8210    1.2265 H   0  0  0  0  0  0  0  0  0  0  0  0
    8.0339    1.5738    0.5905 H   0  0  0  0  0  0  0  0  0  0  0  0
    6.6417   -0.1102    0.0066 H   0  0  0  0  0  0  0  0  0  0  0  0
    4.2956   -0.7823   -0.2781 H   0  0  0  0  0  0  0  0  0  0  0  0
   -0.3410    0.1085   -1.4832 H   0  0  0  0  0  0  0  0  0  0  0  0
   -2.6390    1.0289   -1.5205 H   0  0  0  0  0  0  0  0  0  0  0  0
   -3.1086    3.2949   -0.0068 H   0  0  0  0  0  0  0  0  0  0  0  0
   -4.3653    2.0817   -0.3041 H   0  0  0  0  0  0  0  0  0  0  0  0
   -4.3040    2.1794    2.1209 H   0  0  0  0  0  0  0  0  0  0  0  0
   -2.5316    2.2533    2.1266 H   0  0  0  0  0  0  0  0  0  0  0  0
   -4.2934   -0.1174    1.3835 H   0  0  0  0  0  0  0  0  0  0  0  0
   -2.8481   -0.1085    2.4327 H   0  0  0  0  0  0  0  0  0  0  0  0
   -1.9634   -2.1652    1.8271 H   0  0  0  0  0  0  0  0  0  0  0  0
   -1.5546   -4.3778    1.1378 H   0  0  0  0  0  0  0  0  0  0  0  0
   -0.7894   -3.5417   -0.2185 H   0  0  0  0  0  0  0  0  0  0  0  0
   -2.9561   -5.3416   -0.3701 H   0  0  0  0  0  0  0  0  0  0  0  0
   -2.5001   -4.2170   -1.6607 H   0  0  0  0  0  0  0  0  0  0  0  0
   -4.2383   -2.7683   -1.1837 H   0  0  0  0  0  0  0  0  0  0  0  0
   -4.9457   -4.0991   -0.2630 H   0  0  0  0  0  0  0  0  0  0  0  0
   -3.9524   -3.3559    1.6638 H   0  0  0  0  0  0  0  0  0  0  0  0
  1  2  2  0  0  0  0
  2  3  1  0  0  0  0
  2  4  1  0  0  0  0
  4  5  1  0  0  0  0
  5  6  1  0  0  0  0
  6  7  2  0  0  0  0
  7  8  1  0  0  0  0
  8  9  2  0  0  0  0
  9 10  1  0  0  0  0
  9 11  1  0  0  0  0
 11 12  2  0  0  0  0
  4 13  1  0  0  0  0
 13 14  1  0  0  0  0
 14 15  2  0  0  0  0
 14 16  1  0  0  0  0
 16 17  1  0  0  0  0
 17 18  1  0  0  0  0
 18 19  1  0  0  0  0
 19 20  1  0  0  0  0
 20 21  1  0  0  0  0
 21 22  2  0  0  0  0
 21 23  1  0  0  0  0
 23 24  1  0  0  0  0
 24 25  1  0  0  0  0
 25 26  1  0  0  0  0
 26 27  1  0  0  0  0
  6 12  1  0  0  0  0
 16 20  1  0  0  0  0
 23 27  1  0  0  0  0
  3 28  1  0  0  0  0
  4 29  1  0  0  0  0
  5 30  1  0  0  0  0
  5 31  1  0  0  0  0
  7 32  1  0  0  0  0
  8 33  1  0  0  0  0
 10 34  1  0  0  0  0
 11 35  1  0  0  0  0
 12 36  1  0  0  0  0
 13 37  1  0  0  0  0
 16 38  1  0  0  0  0
 17 39  1  0  0  0  0
 17 40  1  0  0  0  0
 18 41  1  0  0  0  0
 18 42  1  0  0  0  0
 19 43  1  0  0  0  0
 19 44  1  0  0  0  0
 23 45  1  0  0  0  0
 24 46  1  0  0  0  0
 24 47  1  0  0  0  0
 25 48  1  0  0  0  0
 25 49  1  0  0  0  0
 26 50  1  0  0  0  0
 26 51  1  0  0  0  0
 27 52  1  0  0  0  0
M  END
$$$$
PPY.sdf
  PyMOL2.5          3D                             0

 52 54  0  0  1  0  0  0  0  0999 V2000
    2.3938    3.9488    0.9780 O   0  0  0  0  0  0  0  0  0  0  0  0
    1.6402    3.2749    0.2945 C   0  0  0  0  0  0  0  0  0  0  0  0
    0.5115    3.8451   -0.1951 O   0  0  0  0  0  0  0  0  0  0  0  0
    1.8542    1.8263   -0.1653 C   0  0  2  0  0  0  0  0  0  0  0  0
    3.0402    1.7579   -1.1374 C   0  0  0  0  0  0  0  0  0  0  0  0
    4.3767    1.6312   -0.4445 C   0  0  0  0  0  0  0  0  0  0  0  0
    5.2097    2.7458   -0.2807 C   0  0  0  0  0  0  0  0  0  0  0  0
    6.4400    2.6179    0.3662 C   0  0  0  0  0  0  0  0  0  0  0  0
    6.8387    1.3791    0.8523 C   0  0  0  0  0  0  0  0  0  0  0  0
    8.0476    1.3001    1.4782 O   0  0  0  0  0  0  0  0  0  0  0  0
    6.0253    0.2611    0.7042 C   0  0  0  0  0  0  0  0  0  0  0  0
    4.7946    0.3886    0.0566 C   0  0  0  0  0  0  0  0  0  0  0  0
    0.6379    1.3386   -0.8355 N   0  0  0  0  0  0  0  0  0  0  0  0
   -0.2911    0.5753   -0.1509 C   0  0  0  0  0  0  0  0  0  0  0  0
   -0.0941    0.1604    0.9886 O   0  0  0  0  0  0  0  0  0  0  0  0
   -1.6122    0.3627   -0.9266 C   0  0  2  0  0  0  0  0  0  0  0  0
   -2.5532    1.5474   -0.7169 C   0  0  0  0  0  0  0  0  0  0  0  0
   -3.2987    1.1676    0.5582 C   0  0  0  0  0  0  0  0  0  0  0  0
   -3.4503   -0.3465    0.4521 C   0  0  0  0  0  0  0  0  0  0  0  0
   -2.3687   -0.7754   -0.4217 N   0  0  0  0  0  0  0  0  0  0  0  0
   -2.0165   -2.0543   -0.7879 C   0  0  0  0  0  0  0  0  0  0  0  0
   -1.0686   -2.2426   -1.5615 O   0  0  0  0  0  0  0  0  0  0  0  0
   -2.8388   -3.2635   -0.3105 C   0  0  2  0  0  0  0  0  0  0  0  0
   -4.2243   -3.3664   -0.9410 C   0  0  0  0  0  0  0  0  0  0  0  0
   -5.1624   -3.6768    0.2199 C   0  0  0  0  0  0  0  0  0  0  0  0
   -4.2414   -4.1249    1.3393 C   0  0  0  0  0  0  0  0  0  0  0  0
   -3.0744   -3.2731    1.1472 N   0  0  0  0  0  0  0  0  0  0  0  0
    0.5296    4.7425    0.2026 H   0  0  0  0  0  0  0  0  0  0  0  0
    2.0274    1.2215    0.7314 H   0  0  0  0  0  0  0  0  0  0  0  0
    2.9328    0.8898   -1.8026 H   0  0  0  0  0  0  0  0  0  0  0  0
    3.0478    2.6317   -1.8028 H   0  0  0  0  0  0  0  0  0  0  0  0
    4.9059    3.7247   -0.6443 H   0  0  0  0  0  0  0  0  0  0  0  0
    7.0820    3.4843    0.4956 H   0  0  0  0  0  0  0  0  0  0  0  0
    8.1744    0.3878    1.7854 H   0  0  0  0  0  0  0  0  0  0  0  0
    6.3267   -0.7101    1.0831 H   0  0  0  0  0  0  0  0  0  0  0  0
    4.1603   -0.4894   -0.0542 H   0  0  0  0  0  0  0  0  0  0  0  0
    0.2868    1.9194   -1.5873 H   0  0  0  0  0  0  0  0  0  0  0  0
   -1.3772    0.2195   -1.9878 H   0  0  0  0  0  0  0  0  0  0  0  0
   -3.2653    1.6097   -1.5489 H   0  0  0  0  0  0  0  0  0  0  0  0
   -2.0454    2.5116   -0.6258 H   0  0  0  0  0  0  0  0  0  0  0  0
   -2.6908    1.4224    1.4347 H   0  0  0  0  0  0  0  0  0  0  0  0
   -4.2606    1.6785    0.6575 H   0  0  0  0  0  0  0  0  0  0  0  0
   -3.3788   -0.8133    1.4360 H   0  0  0  0  0  0  0  0  0  0  0  0
   -4.4026   -0.6131   -0.0143 H   0  0  0  0  0  0  0  0  0  0  0  0
   -2.2627   -4.1637   -0.5651 H   0  0  0  0  0  0  0  0  0  0  0  0
   -4.5396   -2.4636   -1.4733 H   0  0  0  0  0  0  0  0  0  0  0  0
   -4.2422   -4.1923   -1.6623 H   0  0  0  0  0  0  0  0  0  0  0  0
   -5.7029   -2.7684    0.5125 H   0  0  0  0  0  0  0  0  0  0  0  0
   -5.9024   -4.4396   -0.0403 H   0  0  0  0  0  0  0  0  0  0  0  0
   -4.6922   -3.9798    2.3248 H   0  0  0  0  0  0  0  0  0  0  0  0
   -3.9725   -5.1817    1.2271 H   0  0  0  0  0  0  0  0  0  0  0  0
   -2.2540   -3.6339    1.6330 H   0  0  0  0  0  0  0  0  0  0  0  0
  1  2  2  0  0  0  0
  2  3  1  0  0  0  0
  2  4  1  0  0  0  0
  4  5  1  0  0  0  0
  5  6  1  0  0  0  0
  6  7  2  0  0  0  0
  7  8  1  0  0  0  0
  8  9  2  0  0  0  0
  9 10  1  0  0  0  0
  9 11  1  0  0  0  0
 11 12  2  0  0  0  0
  4 13  1  0  0  0  0
 13 14  1  0  0  0  0
 14 15  2  0  0  0  0
 14 16  1  0  0  0  0
 16 17  1  0  0  0  0
 17 18  1  0  0  0  0
 18 19  1  0  0  0  0
 19 20  1  0  0  0  0
 20 21  1  0  0  0  0
 21 22  2  0  0  0  0
 21 23  1  0  0  0  0
 23 24  1  0  0  0  0
 24 25  1  0  0  0  0
 25 26  1  0  0  0  0
 26 27  1  0  0  0  0
  6 12  1  0  0  0  0
 16 20  1  0  0  0  0
 23 27  1  0  0  0  0
  3 28  1  0  0  0  0
  4 29  1  0  0  0  0
  5 30  1  0  0  0  0
  5 31  1  0  0  0  0
  7 32  1  0  0  0  0
  8 33  1  0  0  0  0
 10 34  1  0  0  0  0
 11 35  1  0  0  0  0
 12 36  1  0  0  0  0
 13 37  1  0  0  0  0
 16 38  1  0  0  0  0
 17 39  1  0  0  0  0
 17 40  1  0  0  0  0
 18 41  1  0  0  0  0
 18 42  1  0  0  0  0
 19 43  1  0  0  0  0
 19 44  1  0  0  0  0
 23 45  1  0  0  0  0
 24 46  1  0  0  0  0
 24 47  1  0  0  0  0
 25 48  1  0  0  0  0
 25 49  1  0  0  0  0
 26 50  1  0  0  0  0
 26 51  1  0  0  0  0
 27 52  1  0  0  0  0
M  END
$$$$
PPY.sdf
  PyMOL2.5          3D                             0

 52 54  0  0  1  0  0  0  0  0999 V2000
    1.7845   -0.4942   -2.7930 O   0  0  0  0  0  0  0  0  0  0  0  0
    2.3686   -0.1934   -1.7588 C   0  0  0  0  0  0  0  0  0  0  0  0
    3.3834   -0.9608   -1.3269 O   0  0  0  0  0  0  0  0  0  0  0  0
    2.0601    1.0509   -0.9200 C   0  0  2  0  0  0  0  0  0  0  0  0
    2.7180    1.1014    0.4711 C   0  0  0  0  0  0  0  0  0  0  0  0
    4.0902    1.7436    0.4486 C   0  0  0  0  0  0  0  0  0  0  0  0
    4.2169    3.1389    0.3710 C   0  0  0  0  0  0  0  0  0  0  0  0
    5.4791    3.7330    0.3376 C   0  0  0  0  0  0  0  0  0  0  0  0
    6.6163    2.9367    0.3835 C   0  0  0  0  0  0  0  0  0  0  0  0
    7.8293    3.5583    0.3485 O   0  0  0  0  0  0  0  0  0  0  0  0
    6.5134    1.5522    0.4636 C   0  0  0  0  0  0  0  0  0  0  0  0
    5.2499    0.9577    0.4966 C   0  0  0  0  0  0  0  0  0  0  0  0
    0.5960    1.2170   -0.8880 N   0  0  0  0  0  0  0  0  0  0  0  0
   -0.2026    0.4118   -0.0909 C   0  0  0  0  0  0  0  0  0  0  0  0
    0.2613   -0.3658    0.7395 O   0  0  0  0  0  0  0  0  0  0  0  0
   -1.7175    0.6554   -0.2858 C   0  0  2  0  0  0  0  0  0  0  0  0
   -2.1522    1.9230    0.4521 C   0  0  0  0  0  0  0  0  0  0  0  0
   -2.5073    1.4035    1.8437 C   0  0  0  0  0  0  0  0  0  0  0  0
   -3.1479    0.0527    1.5551 C   0  0  0  0  0  0  0  0  0  0  0  0
   -2.5098   -0.3994    0.3308 N   0  0  0  0  0  0  0  0  0  0  0  0
   -2.6866   -1.6120   -0.3017 C   0  0  0  0  0  0  0  0  0  0  0  0
   -2.1903   -1.8267   -1.4106 O   0  0  0  0  0  0  0  0  0  0  0  0
   -3.5138   -2.6846    0.4493 C   0  0  2  0  0  0  0  0  0  0  0  0
   -3.5343   -4.0293   -0.2675 C   0  0  0  0  0  0  0  0  0  0  0  0
   -4.7209   -3.9477   -1.2199 C   0  0  0  0  0  0  0  0  0  0  0  0
   -5.4717   -2.6864   -0.8230 C   0  0  0  0  0  0  0  0  0  0  0  0
   -4.9526   -2.3135    0.4997 N   0  0  0  0  0  0  0  0  0  0  0  0
    3.3945   -1.7064   -1.9635 H   0  0  0  0  0  0  0  0  0  0  0  0
    2.4173    1.8984   -1.5193 H   0  0  0  0  0  0  0  0  0  0  0  0
    2.1002    1.6925    1.1610 H   0  0  0  0  0  0  0  0  0  0  0  0
    2.7877    0.1032    0.9203 H   0  0  0  0  0  0  0  0  0  0  0  0
    3.3334    3.7725    0.3410 H   0  0  0  0  0  0  0  0  0  0  0  0
    5.5750    4.8133    0.2791 H   0  0  0  0  0  0  0  0  0  0  0  0
    8.5232    2.8812    0.4045 H   0  0  0  0  0  0  0  0  0  0  0  0
    7.3960    0.9220    0.5015 H   0  0  0  0  0  0  0  0  0  0  0  0
    5.1745   -0.1263    0.5598 H   0  0  0  0  0  0  0  0  0  0  0  0
    0.1814    1.4870   -1.7733 H   0  0  0  0  0  0  0  0  0  0  0  0
   -1.9324    0.7132   -1.3588 H   0  0  0  0  0  0  0  0  0  0  0  0
   -3.0506    2.3388   -0.0205 H   0  0  0  0  0  0  0  0  0  0  0  0
   -1.3888    2.7056    0.4872 H   0  0  0  0  0  0  0  0  0  0  0  0
   -1.5942    1.2690    2.4358 H   0  0  0  0  0  0  0  0  0  0  0  0
   -3.1729    2.0754    2.3924 H   0  0  0  0  0  0  0  0  0  0  0  0
   -4.2192    0.1681    1.3620 H   0  0  0  0  0  0  0  0  0  0  0  0
   -3.0000   -0.6643    2.3667 H   0  0  0  0  0  0  0  0  0  0  0  0
   -3.0960   -2.7964    1.4554 H   0  0  0  0  0  0  0  0  0  0  0  0
   -3.7112   -4.8348    0.4564 H   0  0  0  0  0  0  0  0  0  0  0  0
   -2.6058   -4.2619   -0.7980 H   0  0  0  0  0  0  0  0  0  0  0  0
   -5.3506   -4.8382   -1.1166 H   0  0  0  0  0  0  0  0  0  0  0  0
   -4.3886   -3.8889   -2.2618 H   0  0  0  0  0  0  0  0  0  0  0  0
   -6.5538   -2.8475   -0.7924 H   0  0  0  0  0  0  0  0  0  0  0  0
   -5.2796   -1.8792   -1.5391 H   0  0  0  0  0  0  0  0  0  0  0  0
   -5.3991   -2.9185    1.1901 H   0  0  0  0  0  0  0  0  0  0  0  0
  1  2  2  0  0  0  0
  2  3  1  0  0  0  0
  2  4  1  0  0  0  0
  4  5  1  0  0  0  0
  5  6  1  0  0  0  0
  6  7  2  0  0  0  0
  7  8  1  0  0  0  0
  8  9  2  0  0  0  0
  9 10  1  0  0  0  0
  9 11  1  0  0  0  0
 11 12  2  0  0  0  0
  4 13  1  0  0  0  0
 13 14  1  0  0  0  0
 14 15  2  0  0  0  0
 14 16  1  0  0  0  0
 16 17  1  0  0  0  0
 17 18  1  0  0  0  0
 18 19  1  0  0  0  0
 19 20  1  0  0  0  0
 20 21  1  0  0  0  0
 21 22  2  0  0  0  0
 21 23  1  0  0  0  0
 23 24  1  0  0  0  0
 24 25  1  0  0  0  0
 25 26  1  0  0  0  0
 26 27  1  0  0  0  0
  6 12  1  0  0  0  0
 16 20  1  0  0  0  0
 23 27  1  0  0  0  0
  3 28  1  0  0  0  0
  4 29  1  0  0  0  0
  5 30  1  0  0  0  0
  5 31  1  0  0  0  0
  7 32  1  0  0  0  0
  8 33  1  0  0  0  0
 10 34  1  0  0  0  0
 11 35  1  0  0  0  0
 12 36  1  0  0  0  0
 13 37  1  0  0  0  0
 16 38  1  0  0  0  0
 17 39  1  0  0  0  0
 17 40  1  0  0  0  0
 18 41  1  0  0  0  0
 18 42  1  0  0  0  0
 19 43  1  0  0  0  0
 19 44  1  0  0  0  0
 23 45  1  0  0  0  0
 24 46  1  0  0  0  0
 24 47  1  0  0  0  0
 25 48  1  0  0  0  0
 25 49  1  0  0  0  0
 26 50  1  0  0  0  0
 26 51  1  0  0  0  0
 27 52  1  0  0  0  0
M  END
$$$$
PPY.sdf
  PyMOL2.5          3D                             0

 52 54  0  0  1  0  0  0  0  0999 V2000
    1.6311    1.2315    2.4152 O   0  0  0  0  0  0  0  0  0  0  0  0
    2.1326    0.7736    1.3966 C   0  0  0  0  0  0  0  0  0  0  0  0
    3.0471   -0.2109    1.4581 O   0  0  0  0  0  0  0  0  0  0  0  0
    1.8201    1.2395   -0.0225 C   0  0  2  0  0  0  0  0  0  0  0  0
    2.5622    2.5472   -0.3207 C   0  0  0  0  0  0  0  0  0  0  0  0
    4.0594    2.3867   -0.4316 C   0  0  0  0  0  0  0  0  0  0  0  0
    4.6251    1.7399   -1.5404 C   0  0  0  0  0  0  0  0  0  0  0  0
    6.0090    1.5785   -1.6380 C   0  0  0  0  0  0  0  0  0  0  0  0
    6.8278    2.0666   -0.6255 C   0  0  0  0  0  0  0  0  0  0  0  0
    8.1832    1.9297   -0.6795 O   0  0  0  0  0  0  0  0  0  0  0  0
    6.2857    2.7119    0.4787 C   0  0  0  0  0  0  0  0  0  0  0  0
    4.9029    2.8722    0.5777 C   0  0  0  0  0  0  0  0  0  0  0  0
    0.3651    1.4607   -0.0748 N   0  0  0  0  0  0  0  0  0  0  0  0
   -0.4718    0.4675   -0.5473 C   0  0  0  0  0  0  0  0  0  0  0  0
   -0.0462   -0.5015   -1.1740 O   0  0  0  0  0  0  0  0  0  0  0  0
   -1.9842    0.7377   -0.3611 C   0  0  2  0  0  0  0  0  0  0  0  0
   -2.4281    1.4169    0.9308 C   0  0  0  0  0  0  0  0  0  0  0  0
   -3.8998    1.0254    1.0715 C   0  0  0  0  0  0  0  0  0  0  0  0
   -4.1622    0.0136   -0.0451 C   0  0  0  0  0  0  0  0  0  0  0  0
   -2.8544   -0.4367   -0.4933 N   0  0  0  0  0  0  0  0  0  0  0  0
   -2.4242   -1.5819    0.2009 C   0  0  0  0  0  0  0  0  0  0  0  0
   -1.9297   -1.5285    1.3285 O   0  0  0  0  0  0  0  0  0  0  0  0
   -2.5311   -2.9024   -0.6054 C   0  0  2  0  0  0  0  0  0  0  0  0
   -3.8333   -3.1311   -1.3569 C   0  0  0  0  0  0  0  0  0  0  0  0
   -4.7400   -3.8656   -0.3751 C   0  0  0  0  0  0  0  0  0  0  0  0
   -3.8561   -4.2212    0.8089 C   0  0  0  0  0  0  0  0  0  0  0  0
   -2.4909   -4.0641    0.3155 N   0  0  0  0  0  0  0  0  0  0  0  0
    3.1273   -0.4247    2.4105 H   0  0  0  0  0  0  0  0  0  0  0  0
    2.0950    0.4499   -0.7299 H   0  0  0  0  0  0  0  0  0  0  0  0
    2.1951    2.9734   -1.2643 H   0  0  0  0  0  0  0  0  0  0  0  0
    2.3277    3.2983    0.4459 H   0  0  0  0  0  0  0  0  0  0  0  0
    3.9905    1.3541   -2.3360 H   0  0  0  0  0  0  0  0  0  0  0  0
    6.4241    1.0722   -2.5037 H   0  0  0  0  0  0  0  0  0  0  0  0
    8.4118    1.4472   -1.4907 H   0  0  0  0  0  0  0  0  0  0  0  0
    6.9381    3.0879    1.2616 H   0  0  0  0  0  0  0  0  0  0  0  0
    4.4932    3.3767    1.4500 H   0  0  0  0  0  0  0  0  0  0  0  0
    0.0043    2.0445    0.6717 H   0  0  0  0  0  0  0  0  0  0  0  0
   -2.2560    1.3938   -1.2017 H   0  0  0  0  0  0  0  0  0  0  0  0
   -1.8564    1.0612    1.7957 H   0  0  0  0  0  0  0  0  0  0  0  0
   -2.3021    2.5037    0.8838 H   0  0  0  0  0  0  0  0  0  0  0  0
   -4.5666    1.8893    0.9847 H   0  0  0  0  0  0  0  0  0  0  0  0
   -4.0739    0.5734    2.0545 H   0  0  0  0  0  0  0  0  0  0  0  0
   -4.6519    0.5024   -0.8950 H   0  0  0  0  0  0  0  0  0  0  0  0
   -4.7926   -0.8125    0.2982 H   0  0  0  0  0  0  0  0  0  0  0  0
   -1.6724   -2.9319   -1.2846 H   0  0  0  0  0  0  0  0  0  0  0  0
   -4.3074   -2.2229   -1.7370 H   0  0  0  0  0  0  0  0  0  0  0  0
   -3.6497   -3.7822   -2.2214 H   0  0  0  0  0  0  0  0  0  0  0  0
   -5.5774   -3.2346   -0.0593 H   0  0  0  0  0  0  0  0  0  0  0  0
   -5.1560   -4.7633   -0.8461 H   0  0  0  0  0  0  0  0  0  0  0  0
   -4.0456   -3.5365    1.6439 H   0  0  0  0  0  0  0  0  0  0  0  0
   -4.0367   -5.2406    1.1620 H   0  0  0  0  0  0  0  0  0  0  0  0
   -1.8618   -3.8344    1.0906 H   0  0  0  0  0  0  0  0  0  0  0  0
  1  2  2  0  0  0  0
  2  3  1  0  0  0  0
  2  4  1  0  0  0  0
  4  5  1  0  0  0  0
  5  6  1  0  0  0  0
  6  7  2  0  0  0  0
  7  8  1  0  0  0  0
  8  9  2  0  0  0  0
  9 10  1  0  0  0  0
  9 11  1  0  0  0  0
 11 12  2  0  0  0  0
  4 13  1  0  0  0  0
 13 14  1  0  0  0  0
 14 15  2  0  0  0  0
 14 16  1  0  0  0  0
 16 17  1  0  0  0  0
 17 18  1  0  0  0  0
 18 19  1  0  0  0  0
 19 20  1  0  0  0  0
 20 21  1  0  0  0  0
 21 22  2  0  0  0  0
 21 23  1  0  0  0  0
 23 24  1  0  0  0  0
 24 25  1  0  0  0  0
 25 26  1  0  0  0  0
 26 27  1  0  0  0  0
  6 12  1  0  0  0  0
 16 20  1  0  0  0  0
 23 27  1  0  0  0  0
  3 28  1  0  0  0  0
  4 29  1  0  0  0  0
  5 30  1  0  0  0  0
  5 31  1  0  0  0  0
  7 32  1  0  0  0  0
  8 33  1  0  0  0  0
 10 34  1  0  0  0  0
 11 35  1  0  0  0  0
 12 36  1  0  0  0  0
 13 37  1  0  0  0  0
 16 38  1  0  0  0  0
 17 39  1  0  0  0  0
 17 40  1  0  0  0  0
 18 41  1  0  0  0  0
 18 42  1  0  0  0  0
 19 43  1  0  0  0  0
 19 44  1  0  0  0  0
 23 45  1  0  0  0  0
 24 46  1  0  0  0  0
 24 47  1  0  0  0  0
 25 48  1  0  0  0  0
 25 49  1  0  0  0  0
 26 50  1  0  0  0  0
 26 51  1  0  0  0  0
 27 52  1  0  0  0  0
M  END
$$$$
PPY.sdf
  PyMOL2.5          3D                             0

 52 54  0  0  1  0  0  0  0  0999 V2000
    0.9029    2.1967   -1.5970 O   0  0  0  0  0  0  0  0  0  0  0  0
    1.5217    2.7277   -0.6875 C   0  0  0  0  0  0  0  0  0  0  0  0
    2.4173    3.7003   -0.9584 O   0  0  0  0  0  0  0  0  0  0  0  0
    1.3928    2.4254    0.8067 C   0  0  2  0  0  0  0  0  0  0  0  0
    2.7117    1.8929    1.3930 C   0  0  0  0  0  0  0  0  0  0  0  0
    3.1537    0.5574    0.8329 C   0  0  0  0  0  0  0  0  0  0  0  0
    3.9853    0.4987   -0.2941 C   0  0  0  0  0  0  0  0  0  0  0  0
    4.3464   -0.7331   -0.8413 C   0  0  0  0  0  0  0  0  0  0  0  0
    3.8751   -1.9071   -0.2680 C   0  0  0  0  0  0  0  0  0  0  0  0
    4.2373   -3.0872   -0.8465 O   0  0  0  0  0  0  0  0  0  0  0  0
    3.0606   -1.8728    0.8581 C   0  0  0  0  0  0  0  0  0  0  0  0
    2.7082   -0.6407    1.4124 C   0  0  0  0  0  0  0  0  0  0  0  0
    0.2819    1.4948    1.0275 N   0  0  0  0  0  0  0  0  0  0  0  0
   -1.0225    1.9384    1.0446 C   0  0  0  0  0  0  0  0  0  0  0  0
   -1.3207    3.1292    1.0881 O   0  0  0  0  0  0  0  0  0  0  0  0
   -2.0897    0.8231    1.1265 C   0  0  2  0  0  0  0  0  0  0  0  0
   -2.6067    0.7185    2.5640 C   0  0  0  0  0  0  0  0  0  0  0  0
   -1.6576   -0.2875    3.2072 C   0  0  0  0  0  0  0  0  0  0  0  0
   -1.4039   -1.2842    2.0884 C   0  0  0  0  0  0  0  0  0  0  0  0
   -1.5564   -0.5228    0.8582 N   0  0  0  0  0  0  0  0  0  0  0  0
   -1.3706   -1.1410   -0.3626 C   0  0  0  0  0  0  0  0  0  0  0  0
   -0.8967   -2.2803   -0.4202 O   0  0  0  0  0  0  0  0  0  0  0  0
   -1.7616   -0.3623   -1.6428 C   0  0  2  0  0  0  0  0  0  0  0  0
   -3.2778   -0.3074   -1.8367 C   0  0  0  0  0  0  0  0  0  0  0  0
   -3.5413   -1.0177   -3.1556 C   0  0  0  0  0  0  0  0  0  0  0  0
   -2.3258   -1.8978   -3.3390 C   0  0  0  0  0  0  0  0  0  0  0  0
   -1.2408   -1.0522   -2.8484 N   0  0  0  0  0  0  0  0  0  0  0  0
    2.3546    3.8033   -1.9325 H   0  0  0  0  0  0  0  0  0  0  0  0
    1.1376    3.3712    1.3004 H   0  0  0  0  0  0  0  0  0  0  0  0
    2.6074    1.7936    2.4818 H   0  0  0  0  0  0  0  0  0  0  0  0
    3.5156    2.6245    1.2403 H   0  0  0  0  0  0  0  0  0  0  0  0
    4.3551    1.4091   -0.7606 H   0  0  0  0  0  0  0  0  0  0  0  0
    4.9848   -0.7768   -1.7191 H   0  0  0  0  0  0  0  0  0  0  0  0
    3.7450   -3.8046   -0.4144 H   0  0  0  0  0  0  0  0  0  0  0  0
    2.6916   -2.7868    1.3127 H   0  0  0  0  0  0  0  0  0  0  0  0
    2.0726   -0.6218    2.2951 H   0  0  0  0  0  0  0  0  0  0  0  0
    0.4051    0.5529    0.6669 H   0  0  0  0  0  0  0  0  0  0  0  0
   -2.8871    1.0723    0.4231 H   0  0  0  0  0  0  0  0  0  0  0  0
   -3.6241    0.3082    2.5624 H   0  0  0  0  0  0  0  0  0  0  0  0
   -2.6229    1.6716    3.1010 H   0  0  0  0  0  0  0  0  0  0  0  0
   -2.0776   -0.7579    4.1005 H   0  0  0  0  0  0  0  0  0  0  0  0
   -0.7221    0.2077    3.4929 H   0  0  0  0  0  0  0  0  0  0  0  0
   -2.1558   -2.0815    2.0885 H   0  0  0  0  0  0  0  0  0  0  0  0
   -0.4097   -1.7378    2.1421 H   0  0  0  0  0  0  0  0  0  0  0  0
   -1.3231    0.6378   -1.5947 H   0  0  0  0  0  0  0  0  0  0  0  0
   -3.8133   -0.8173   -1.0275 H   0  0  0  0  0  0  0  0  0  0  0  0
   -3.6427    0.7241   -1.8867 H   0  0  0  0  0  0  0  0  0  0  0  0
   -3.6081   -0.2830   -3.9677 H   0  0  0  0  0  0  0  0  0  0  0  0
   -4.4742   -1.5889   -3.1384 H   0  0  0  0  0  0  0  0  0  0  0  0
   -2.1746   -2.1791   -4.3848 H   0  0  0  0  0  0  0  0  0  0  0  0
   -2.4104   -2.8121   -2.7405 H   0  0  0  0  0  0  0  0  0  0  0  0
   -0.4462   -1.6379   -2.5757 H   0  0  0  0  0  0  0  0  0  0  0  0
  1  2  2  0  0  0  0
  2  3  1  0  0  0  0
  2  4  1  0  0  0  0
  4  5  1  0  0  0  0
  5  6  1  0  0  0  0
  6  7  2  0  0  0  0
  7  8  1  0  0  0  0
  8  9  2  0  0  0  0
  9 10  1  0  0  0  0
  9 11  1  0  0  0  0
 11 12  2  0  0  0  0
  4 13  1  0  0  0  0
 13 14  1  0  0  0  0
 14 15  2  0  0  0  0
 14 16  1  0  0  0  0
 16 17  1  0  0  0  0
 17 18  1  0  0  0  0
 18 19  1  0  0  0  0
 19 20  1  0  0  0  0
 20 21  1  0  0  0  0
 21 22  2  0  0  0  0
 21 23  1  0  0  0  0
 23 24  1  0  0  0  0
 24 25  1  0  0  0  0
 25 26  1  0  0  0  0
 26 27  1  0  0  0  0
  6 12  1  0  0  0  0
 16 20  1  0  0  0  0
 23 27  1  0  0  0  0
  3 28  1  0  0  0  0
  4 29  1  0  0  0  0
  5 30  1  0  0  0  0
  5 31  1  0  0  0  0
  7 32  1  0  0  0  0
  8 33  1  0  0  0  0
 10 34  1  0  0  0  0
 11 35  1  0  0  0  0
 12 36  1  0  0  0  0
 13 37  1  0  0  0  0
 16 38  1  0  0  0  0
 17 39  1  0  0  0  0
 17 40  1  0  0  0  0
 18 41  1  0  0  0  0
 18 42  1  0  0  0  0
 19 43  1  0  0  0  0
 19 44  1  0  0  0  0
 23 45  1  0  0  0  0
 24 46  1  0  0  0  0
 24 47  1  0  0  0  0
 25 48  1  0  0  0  0
 25 49  1  0  0  0  0
 26 50  1  0  0  0  0
 26 51  1  0  0  0  0
 27 52  1  0  0  0  0
M  END
$$$$
PPY.sdf
  PyMOL2.5          3D                             0

 52 54  0  0  1  0  0  0  0  0999 V2000
    2.3461    3.1879    1.6337 O   0  0  0  0  0  0  0  0  0  0  0  0
    2.6629    2.3127    2.4245 C   0  0  0  0  0  0  0  0  0  0  0  0
    3.6688    2.5332    3.2992 O   0  0  0  0  0  0  0  0  0  0  0  0
    2.0600    0.9138    2.5539 C   0  0  2  0  0  0  0  0  0  0  0  0
    3.0303   -0.1625    2.0347 C   0  0  0  0  0  0  0  0  0  0  0  0
    3.0108   -0.4175    0.5411 C   0  0  0  0  0  0  0  0  0  0  0  0
    3.4570    0.5492   -0.3706 C   0  0  0  0  0  0  0  0  0  0  0  0
    3.4084    0.3053   -1.7458 C   0  0  0  0  0  0  0  0  0  0  0  0
    2.9282   -0.9137   -2.2107 C   0  0  0  0  0  0  0  0  0  0  0  0
    2.8544   -1.1874   -3.5443 O   0  0  0  0  0  0  0  0  0  0  0  0
    2.5012   -1.8927   -1.3245 C   0  0  0  0  0  0  0  0  0  0  0  0
    2.5366   -1.6439    0.0480 C   0  0  0  0  0  0  0  0  0  0  0  0
    0.7553    0.8607    1.8991 N   0  0  0  0  0  0  0  0  0  0  0  0
   -0.4034    1.1927    2.5602 C   0  0  0  0  0  0  0  0  0  0  0  0
   -0.4068    1.4725    3.7592 O   0  0  0  0  0  0  0  0  0  0  0  0
   -1.6679    1.3337    1.6712 C   0  0  2  0  0  0  0  0  0  0  0  0
   -2.9190    1.0483    2.5183 C   0  0  0  0  0  0  0  0  0  0  0  0
   -3.8794    0.3760    1.5513 C   0  0  0  0  0  0  0  0  0  0  0  0
   -2.9525   -0.4383    0.6655 C   0  0  0  0  0  0  0  0  0  0  0  0
   -1.7758    0.4038    0.5315 N   0  0  0  0  0  0  0  0  0  0  0  0
   -0.9961    0.5548   -0.5944 C   0  0  0  0  0  0  0  0  0  0  0  0
   -0.1500    1.4579   -0.6373 O   0  0  0  0  0  0  0  0  0  0  0  0
   -1.1495   -0.3766   -1.8072 C   0  0  2  0  0  0  0  0  0  0  0  0
   -2.3400   -0.0598   -2.7037 C   0  0  0  0  0  0  0  0  0  0  0  0
   -2.9251   -1.4193   -3.0728 C   0  0  0  0  0  0  0  0  0  0  0  0
   -1.8810   -2.4255   -2.6216 C   0  0  0  0  0  0  0  0  0  0  0  0
   -1.3131   -1.7986   -1.4313 N   0  0  0  0  0  0  0  0  0  0  0  0
    3.9202    3.4663    3.1321 H   0  0  0  0  0  0  0  0  0  0  0  0
    1.9071    0.7520    3.6287 H   0  0  0  0  0  0  0  0  0  0  0  0
    2.7813   -1.1033    2.5446 H   0  0  0  0  0  0  0  0  0  0  0  0
    4.0622    0.0642    2.3317 H   0  0  0  0  0  0  0  0  0  0  0  0
    3.8365    1.5082   -0.0264 H   0  0  0  0  0  0  0  0  0  0  0  0
    3.7426    1.0785   -2.4304 H   0  0  0  0  0  0  0  0  0  0  0  0
    3.1942   -0.4182   -4.0312 H   0  0  0  0  0  0  0  0  0  0  0  0
    2.1394   -2.8452   -1.7001 H   0  0  0  0  0  0  0  0  0  0  0  0
    2.1876   -2.4151    0.7315 H   0  0  0  0  0  0  0  0  0  0  0  0
    0.7511    1.0879    0.9021 H   0  0  0  0  0  0  0  0  0  0  0  0
   -1.6895    2.3578    1.2789 H   0  0  0  0  0  0  0  0  0  0  0  0
   -3.3380    1.9610    2.9535 H   0  0  0  0  0  0  0  0  0  0  0  0
   -2.6983    0.3590    3.3429 H   0  0  0  0  0  0  0  0  0  0  0  0
   -4.6312   -0.2384    2.0541 H   0  0  0  0  0  0  0  0  0  0  0  0
   -4.3976    1.1375    0.9559 H   0  0  0  0  0  0  0  0  0  0  0  0
   -2.6458   -1.3643    1.1640 H   0  0  0  0  0  0  0  0  0  0  0  0
   -3.4278   -0.6745   -0.2848 H   0  0  0  0  0  0  0  0  0  0  0  0
   -0.2263   -0.2889   -2.3959 H   0  0  0  0  0  0  0  0  0  0  0  0
   -2.0005    0.4606   -3.6070 H   0  0  0  0  0  0  0  0  0  0  0  0
   -3.0928    0.5763   -2.2267 H   0  0  0  0  0  0  0  0  0  0  0  0
   -3.8657   -1.5769   -2.5314 H   0  0  0  0  0  0  0  0  0  0  0  0
   -3.1380   -1.4980   -4.1432 H   0  0  0  0  0  0  0  0  0  0  0  0
   -1.1109   -2.5594   -3.3904 H   0  0  0  0  0  0  0  0  0  0  0  0
   -2.3211   -3.4005   -2.3946 H   0  0  0  0  0  0  0  0  0  0  0  0
   -0.3989   -2.1934   -1.2109 H   0  0  0  0  0  0  0  0  0  0  0  0
  1  2  2  0  0  0  0
  2  3  1  0  0  0  0
  2  4  1  0  0  0  0
  4  5  1  0  0  0  0
  5  6  1  0  0  0  0
  6  7  2  0  0  0  0
  7  8  1  0  0  0  0
  8  9  2  0  0  0  0
  9 10  1  0  0  0  0
  9 11  1  0  0  0  0
 11 12  2  0  0  0  0
  4 13  1  0  0  0  0
 13 14  1  0  0  0  0
 14 15  2  0  0  0  0
 14 16  1  0  0  0  0
 16 17  1  0  0  0  0
 17 18  1  0  0  0  0
 18 19  1  0  0  0  0
 19 20  1  0  0  0  0
 20 21  1  0  0  0  0
 21 22  2  0  0  0  0
 21 23  1  0  0  0  0
 23 24  1  0  0  0  0
 24 25  1  0  0  0  0
 25 26  1  0  0  0  0
 26 27  1  0  0  0  0
  6 12  1  0  0  0  0
 16 20  1  0  0  0  0
 23 27  1  0  0  0  0
  3 28  1  0  0  0  0
  4 29  1  0  0  0  0
  5 30  1  0  0  0  0
  5 31  1  0  0  0  0
  7 32  1  0  0  0  0
  8 33  1  0  0  0  0
 10 34  1  0  0  0  0
 11 35  1  0  0  0  0
 12 36  1  0  0  0  0
 13 37  1  0  0  0  0
 16 38  1  0  0  0  0
 17 39  1  0  0  0  0
 17 40  1  0  0  0  0
 18 41  1  0  0  0  0
 18 42  1  0  0  0  0
 19 43  1  0  0  0  0
 19 44  1  0  0  0  0
 23 45  1  0  0  0  0
 24 46  1  0  0  0  0
 24 47  1  0  0  0  0
 25 48  1  0  0  0  0
 25 49  1  0  0  0  0
 26 50  1  0  0  0  0
 26 51  1  0  0  0  0
 27 52  1  0  0  0  0
M  END
$$$$
PPY.sdf
  PyMOL2.5          3D                             0

 52 54  0  0  1  0  0  0  0  0999 V2000
    0.8930    0.4159    4.5045 O   0  0  0  0  0  0  0  0  0  0  0  0
    1.7999    0.4711    3.6838 C   0  0  0  0  0  0  0  0  0  0  0  0
    3.0481    0.7581    4.1035 O   0  0  0  0  0  0  0  0  0  0  0  0
    1.6874    0.1342    2.1881 C   0  0  2  0  0  0  0  0  0  0  0  0
    2.8270    0.7142    1.3316 C   0  0  0  0  0  0  0  0  0  0  0  0
    2.8806    0.1079   -0.0546 C   0  0  0  0  0  0  0  0  0  0  0  0
    2.2876    0.7634   -1.1405 C   0  0  0  0  0  0  0  0  0  0  0  0
    2.3275    0.1974   -2.4155 C   0  0  0  0  0  0  0  0  0  0  0  0
    2.9616   -1.0230   -2.6087 C   0  0  0  0  0  0  0  0  0  0  0  0
    2.9707   -1.5442   -3.8684 O   0  0  0  0  0  0  0  0  0  0  0  0
    3.5586   -1.6905   -1.5446 C   0  0  0  0  0  0  0  0  0  0  0  0
    3.5161   -1.1250   -0.2679 C   0  0  0  0  0  0  0  0  0  0  0  0
    0.3457    0.4858    1.7148 N   0  0  0  0  0  0  0  0  0  0  0  0
   -0.0990    1.7913    1.6705 C   0  0  0  0  0  0  0  0  0  0  0  0
    0.5620    2.7292    2.1119 O   0  0  0  0  0  0  0  0  0  0  0  0
   -1.5631    1.9632    1.2232 C   0  0  2  0  0  0  0  0  0  0  0  0
   -2.4595    2.0092    2.4666 C   0  0  0  0  0  0  0  0  0  0  0  0
   -3.7611    1.3779    1.9985 C   0  0  0  0  0  0  0  0  0  0  0  0
   -3.2868    0.2801    1.0617 C   0  0  0  0  0  0  0  0  0  0  0  0
   -2.0968    0.8374    0.4349 N   0  0  0  0  0  0  0  0  0  0  0  0
   -1.7356    0.6957   -0.8911 C   0  0  0  0  0  0  0  0  0  0  0  0
   -0.8987    1.4453   -1.4021 O   0  0  0  0  0  0  0  0  0  0  0  0
   -2.3860   -0.4504   -1.7082 C   0  0  2  0  0  0  0  0  0  0  0  0
   -2.0139   -1.8262   -1.1709 C   0  0  0  0  0  0  0  0  0  0  0  0
   -0.7971   -2.2062   -1.9869 C   0  0  0  0  0  0  0  0  0  0  0  0
   -1.1112   -1.6305   -3.3501 C   0  0  0  0  0  0  0  0  0  0  0  0
   -1.8860   -0.4092   -3.1100 N   0  0  0  0  0  0  0  0  0  0  0  0
    2.9258    0.9707    5.0531 H   0  0  0  0  0  0  0  0  0  0  0  0
    1.7333   -0.9620    2.1442 H   0  0  0  0  0  0  0  0  0  0  0  0
    3.7994    0.5257    1.8046 H   0  0  0  0  0  0  0  0  0  0  0  0
    2.7560    1.8055    1.2548 H   0  0  0  0  0  0  0  0  0  0  0  0
    1.7828    1.7185   -1.0032 H   0  0  0  0  0  0  0  0  0  0  0  0
    1.8583    0.7101   -3.2506 H   0  0  0  0  0  0  0  0  0  0  0  0
    3.5212   -2.3439   -3.8681 H   0  0  0  0  0  0  0  0  0  0  0  0
    4.0570   -2.6439   -1.6872 H   0  0  0  0  0  0  0  0  0  0  0  0
    3.9898   -1.6489    0.5594 H   0  0  0  0  0  0  0  0  0  0  0  0
   -0.1402   -0.1689    1.1158 H   0  0  0  0  0  0  0  0  0  0  0  0
   -1.6492    2.8777    0.6252 H   0  0  0  0  0  0  0  0  0  0  0  0
   -2.0365    1.4190    3.2894 H   0  0  0  0  0  0  0  0  0  0  0  0
   -2.6008    3.0309    2.8328 H   0  0  0  0  0  0  0  0  0  0  0  0
   -4.3714    0.9965    2.8215 H   0  0  0  0  0  0  0  0  0  0  0  0
   -4.3521    2.1170    1.4442 H   0  0  0  0  0  0  0  0  0  0  0  0
   -4.0554    0.0003    0.3393 H   0  0  0  0  0  0  0  0  0  0  0  0
   -2.9782   -0.6062    1.6262 H   0  0  0  0  0  0  0  0  0  0  0  0
   -3.4684   -0.2945   -1.7224 H   0  0  0  0  0  0  0  0  0  0  0  0
   -2.8258   -2.5363   -1.3703 H   0  0  0  0  0  0  0  0  0  0  0  0
   -1.7889   -1.8546   -0.1017 H   0  0  0  0  0  0  0  0  0  0  0  0
    0.0962   -1.7353   -1.5634 H   0  0  0  0  0  0  0  0  0  0  0  0
   -0.6357   -3.2876   -2.0149 H   0  0  0  0  0  0  0  0  0  0  0  0
   -0.2072   -1.4298   -3.9327 H   0  0  0  0  0  0  0  0  0  0  0  0
   -1.7297   -2.3304   -3.9231 H   0  0  0  0  0  0  0  0  0  0  0  0
   -1.2513    0.3980   -3.1728 H   0  0  0  0  0  0  0  0  0  0  0  0
  1  2  2  0  0  0  0
  2  3  1  0  0  0  0
  2  4  1  0  0  0  0
  4  5  1  0  0  0  0
  5  6  1  0  0  0  0
  6  7  2  0  0  0  0
  7  8  1  0  0  0  0
  8  9  2  0  0  0  0
  9 10  1  0  0  0  0
  9 11  1  0  0  0  0
 11 12  2  0  0  0  0
  4 13  1  0  0  0  0
 13 14  1  0  0  0  0
 14 15  2  0  0  0  0
 14 16  1  0  0  0  0
 16 17  1  0  0  0  0
 17 18  1  0  0  0  0
 18 19  1  0  0  0  0
 19 20  1  0  0  0  0
 20 21  1  0  0  0  0
 21 22  2  0  0  0  0
 21 23  1  0  0  0  0
 23 24  1  0  0  0  0
 24 25  1  0  0  0  0
 25 26  1  0  0  0  0
 26 27  1  0  0  0  0
  6 12  1  0  0  0  0
 16 20  1  0  0  0  0
 23 27  1  0  0  0  0
  3 28  1  0  0  0  0
  4 29  1  0  0  0  0
  5 30  1  0  0  0  0
  5 31  1  0  0  0  0
  7 32  1  0  0  0  0
  8 33  1  0  0  0  0
 10 34  1  0  0  0  0
 11 35  1  0  0  0  0
 12 36  1  0  0  0  0
 13 37  1  0  0  0  0
 16 38  1  0  0  0  0
 17 39  1  0  0  0  0
 17 40  1  0  0  0  0
 18 41  1  0  0  0  0
 18 42  1  0  0  0  0
 19 43  1  0  0  0  0
 19 44  1  0  0  0  0
 23 45  1  0  0  0  0
 24 46  1  0  0  0  0
 24 47  1  0  0  0  0
 25 48  1  0  0  0  0
 25 49  1  0  0  0  0
 26 50  1  0  0  0  0
 26 51  1  0  0  0  0
 27 52  1  0  0  0  0
M  END
$$$$
PPY.sdf
  PyMOL2.5          3D                             0

 52 54  0  0  1  0  0  0  0  0999 V2000
    2.0062    1.6386    3.1834 O   0  0  0  0  0  0  0  0  0  0  0  0
    2.4592    0.6822    2.5679 C   0  0  0  0  0  0  0  0  0  0  0  0
    3.6172    0.1096    2.9414 O   0  0  0  0  0  0  0  0  0  0  0  0
    1.8049    0.0247    1.3586 C   0  0  2  0  0  0  0  0  0  0  0  0
    2.2127    0.7504    0.0689 C   0  0  0  0  0  0  0  0  0  0  0  0
    3.6466    0.5041   -0.3348 C   0  0  0  0  0  0  0  0  0  0  0  0
    4.6171    1.5046   -0.1791 C   0  0  0  0  0  0  0  0  0  0  0  0
    5.9440    1.2674   -0.5460 C   0  0  0  0  0  0  0  0  0  0  0  0
    6.2991    0.0283   -1.0688 C   0  0  0  0  0  0  0  0  0  0  0  0
    7.5823   -0.2449   -1.4400 O   0  0  0  0  0  0  0  0  0  0  0  0
    5.3507   -0.9735   -1.2315 C   0  0  0  0  0  0  0  0  0  0  0  0
    4.0250   -0.7370   -0.8668 C   0  0  0  0  0  0  0  0  0  0  0  0
    0.3540    0.1115    1.5761 N   0  0  0  0  0  0  0  0  0  0  0  0
   -0.5271   -0.7095    0.9082 C   0  0  0  0  0  0  0  0  0  0  0  0
   -0.1475   -1.5673    0.1168 O   0  0  0  0  0  0  0  0  0  0  0  0
   -2.0133   -0.4424    1.2368 C   0  0  2  0  0  0  0  0  0  0  0  0
   -2.3387   -0.8992    2.6616 C   0  0  0  0  0  0  0  0  0  0  0  0
   -2.7190   -2.3646    2.4706 C   0  0  0  0  0  0  0  0  0  0  0  0
   -3.4701   -2.3590    1.1479 C   0  0  0  0  0  0  0  0  0  0  0  0
   -2.9248   -1.2335    0.4095 N   0  0  0  0  0  0  0  0  0  0  0  0
   -3.2881   -1.0161   -0.9030 C   0  0  0  0  0  0  0  0  0  0  0  0
   -4.0706   -1.7763   -1.4825 O   0  0  0  0  0  0  0  0  0  0  0  0
   -2.6951    0.2204   -1.6235 C   0  0  2  0  0  0  0  0  0  0  0  0
   -3.3409    1.5245   -1.1525 C   0  0  0  0  0  0  0  0  0  0  0  0
   -3.9774    2.1296   -2.3940 C   0  0  0  0  0  0  0  0  0  0  0  0
   -4.1771    0.9422   -3.3081 C   0  0  0  0  0  0  0  0  0  0  0  0
   -2.9658    0.1567   -3.0824 N   0  0  0  0  0  0  0  0  0  0  0  0
    3.9283    0.6276    3.7121 H   0  0  0  0  0  0  0  0  0  0  0  0
    2.0713   -1.0383    1.3366 H   0  0  0  0  0  0  0  0  0  0  0  0
    1.5708    0.4373   -0.7652 H   0  0  0  0  0  0  0  0  0  0  0  0
    2.0391    1.8299    0.1746 H   0  0  0  0  0  0  0  0  0  0  0  0
    4.3474    2.4771    0.2268 H   0  0  0  0  0  0  0  0  0  0  0  0
    6.6792    2.0553   -0.4186 H   0  0  0  0  0  0  0  0  0  0  0  0
    8.1218    0.5494   -1.2965 H   0  0  0  0  0  0  0  0  0  0  0  0
    5.6406   -1.9356   -1.6442 H   0  0  0  0  0  0  0  0  0  0  0  0
    3.2883   -1.5269   -1.0048 H   0  0  0  0  0  0  0  0  0  0  0  0
    0.0182    0.8673    2.1660 H   0  0  0  0  0  0  0  0  0  0  0  0
   -2.2069    0.6254    1.1060 H   0  0  0  0  0  0  0  0  0  0  0  0
   -1.5180   -0.7783    3.3744 H   0  0  0  0  0  0  0  0  0  0  0  0
   -3.2064   -0.3449    3.0402 H   0  0  0  0  0  0  0  0  0  0  0  0
   -3.3206   -2.7602    3.2936 H   0  0  0  0  0  0  0  0  0  0  0  0
   -1.8130   -2.9767    2.3861 H   0  0  0  0  0  0  0  0  0  0  0  0
   -4.5403   -2.1772    1.2975 H   0  0  0  0  0  0  0  0  0  0  0  0
   -3.3444   -3.2905    0.5874 H   0  0  0  0  0  0  0  0  0  0  0  0
   -1.6112    0.2302   -1.4801 H   0  0  0  0  0  0  0  0  0  0  0  0
   -2.6011    2.2151   -0.7337 H   0  0  0  0  0  0  0  0  0  0  0  0
   -4.1097    1.3487   -0.3911 H   0  0  0  0  0  0  0  0  0  0  0  0
   -3.2908    2.8534   -2.8503 H   0  0  0  0  0  0  0  0  0  0  0  0
   -4.9141    2.6474   -2.1678 H   0  0  0  0  0  0  0  0  0  0  0  0
   -4.2731    1.2399   -4.3559 H   0  0  0  0  0  0  0  0  0  0  0  0
   -5.0704    0.3743   -3.0232 H   0  0  0  0  0  0  0  0  0  0  0  0
   -3.1487   -0.8214   -3.3300 H   0  0  0  0  0  0  0  0  0  0  0  0
  1  2  2  0  0  0  0
  2  3  1  0  0  0  0
  2  4  1  0  0  0  0
  4  5  1  0  0  0  0
  5  6  1  0  0  0  0
  6  7  2  0  0  0  0
  7  8  1  0  0  0  0
  8  9  2  0  0  0  0
  9 10  1  0  0  0  0
  9 11  1  0  0  0  0
 11 12  2  0  0  0  0
  4 13  1  0  0  0  0
 13 14  1  0  0  0  0
 14 15  2  0  0  0  0
 14 16  1  0  0  0  0
 16 17  1  0  0  0  0
 17 18  1  0  0  0  0
 18 19  1  0  0  0  0
 19 20  1  0  0  0  0
 20 21  1  0  0  0  0
 21 22  2  0  0  0  0
 21 23  1  0  0  0  0
 23 24  1  0  0  0  0
 24 25  1  0  0  0  0
 25 26  1  0  0  0  0
 26 27  1  0  0  0  0
  6 12  1  0  0  0  0
 16 20  1  0  0  0  0
 23 27  1  0  0  0  0
  3 28  1  0  0  0  0
  4 29  1  0  0  0  0
  5 30  1  0  0  0  0
  5 31  1  0  0  0  0
  7 32  1  0  0  0  0
  8 33  1  0  0  0  0
 10 34  1  0  0  0  0
 11 35  1  0  0  0  0
 12 36  1  0  0  0  0
 13 37  1  0  0  0  0
 16 38  1  0  0  0  0
 17 39  1  0  0  0  0
 17 40  1  0  0  0  0
 18 41  1  0  0  0  0
 18 42  1  0  0  0  0
 19 43  1  0  0  0  0
 19 44  1  0  0  0  0
 23 45  1  0  0  0  0
 24 46  1  0  0  0  0
 24 47  1  0  0  0  0
 25 48  1  0  0  0  0
 25 49  1  0  0  0  0
 26 50  1  0  0  0  0
 26 51  1  0  0  0  0
 27 52  1  0  0  0  0
M  END
$$$$
PPY.sdf
  PyMOL2.5          3D                             0

 52 54  0  0  1  0  0  0  0  0999 V2000
    4.1359   -0.3264    3.4760 O   0  0  0  0  0  0  0  0  0  0  0  0
    2.9416   -0.2977    3.2268 C   0  0  0  0  0  0  0  0  0  0  0  0
    2.0523   -0.2983    4.2522 O   0  0  0  0  0  0  0  0  0  0  0  0
    2.2812   -0.2365    1.8434 C   0  0  2  0  0  0  0  0  0  0  0  0
    2.7563    1.0217    1.0975 C   0  0  0  0  0  0  0  0  0  0  0  0
    3.9899    0.7689    0.2607 C   0  0  0  0  0  0  0  0  0  0  0  0
    3.8652    0.1826   -1.0077 C   0  0  0  0  0  0  0  0  0  0  0  0
    4.9968   -0.0692   -1.7839 C   0  0  0  0  0  0  0  0  0  0  0  0
    6.2540    0.2603   -1.2939 C   0  0  0  0  0  0  0  0  0  0  0  0
    7.3346   -0.0044   -2.0827 O   0  0  0  0  0  0  0  0  0  0  0  0
    6.3996    0.8385   -0.0369 C   0  0  0  0  0  0  0  0  0  0  0  0
    5.2665    1.0919    0.7398 C   0  0  0  0  0  0  0  0  0  0  0  0
    0.8229   -0.2451    2.0083 N   0  0  0  0  0  0  0  0  0  0  0  0
   -0.0339   -0.4898    0.9577 C   0  0  0  0  0  0  0  0  0  0  0  0
    0.3755   -0.7471   -0.1723 O   0  0  0  0  0  0  0  0  0  0  0  0
   -1.5261   -0.4953    1.3562 C   0  0  2  0  0  0  0  0  0  0  0  0
   -1.9468   -1.8851    1.8283 C   0  0  0  0  0  0  0  0  0  0  0  0
   -2.3519   -2.5774    0.5309 C   0  0  0  0  0  0  0  0  0  0  0  0
   -2.9820   -1.4606   -0.2956 C   0  0  0  0  0  0  0  0  0  0  0  0
   -2.3946   -0.2320    0.2173 N   0  0  0  0  0  0  0  0  0  0  0  0
   -2.5634    1.0567   -0.2342 C   0  0  0  0  0  0  0  0  0  0  0  0
   -1.9906    1.9952    0.3352 O   0  0  0  0  0  0  0  0  0  0  0  0
   -3.5203    1.3631   -1.3988 C   0  0  2  0  0  0  0  0  0  0  0  0
   -4.9971    1.1814   -1.0614 C   0  0  0  0  0  0  0  0  0  0  0  0
   -5.5774    0.4093   -2.2407 C   0  0  0  0  0  0  0  0  0  0  0  0
   -4.5354    0.5530   -3.3342 C   0  0  0  0  0  0  0  0  0  0  0  0
   -3.2856    0.5161   -2.5852 N   0  0  0  0  0  0  0  0  0  0  0  0
    2.6276   -0.3453    5.0467 H   0  0  0  0  0  0  0  0  0  0  0  0
    2.5403   -1.1594    1.3111 H   0  0  0  0  0  0  0  0  0  0  0  0
    2.9503    1.8422    1.8013 H   0  0  0  0  0  0  0  0  0  0  0  0
    1.9751    1.4028    0.4267 H   0  0  0  0  0  0  0  0  0  0  0  0
    2.8824   -0.0828   -1.3963 H   0  0  0  0  0  0  0  0  0  0  0  0
    4.8955   -0.5224   -2.7656 H   0  0  0  0  0  0  0  0  0  0  0  0
    8.1348    0.2725   -1.6078 H   0  0  0  0  0  0  0  0  0  0  0  0
    7.3782    1.0941    0.3561 H   0  0  0  0  0  0  0  0  0  0  0  0
    5.3891    1.5348    1.7260 H   0  0  0  0  0  0  0  0  0  0  0  0
    0.4649   -0.0456    2.9371 H   0  0  0  0  0  0  0  0  0  0  0  0
   -1.6886    0.2586    2.1353 H   0  0  0  0  0  0  0  0  0  0  0  0
   -1.1621   -2.4307    2.3606 H   0  0  0  0  0  0  0  0  0  0  0  0
   -2.8210   -1.8068    2.4861 H   0  0  0  0  0  0  0  0  0  0  0  0
   -1.4611   -2.9633    0.0209 H   0  0  0  0  0  0  0  0  0  0  0  0
   -3.0356   -3.4159    0.6911 H   0  0  0  0  0  0  0  0  0  0  0  0
   -2.7680   -1.5945   -1.3572 H   0  0  0  0  0  0  0  0  0  0  0  0
   -4.0635   -1.4211   -0.1398 H   0  0  0  0  0  0  0  0  0  0  0  0
   -3.3468    2.4082   -1.6901 H   0  0  0  0  0  0  0  0  0  0  0  0
   -5.1774    0.6569   -0.1179 H   0  0  0  0  0  0  0  0  0  0  0  0
   -5.4826    2.1618   -0.9865 H   0  0  0  0  0  0  0  0  0  0  0  0
   -5.7001   -0.6461   -1.9684 H   0  0  0  0  0  0  0  0  0  0  0  0
   -6.5553    0.7943   -2.5448 H   0  0  0  0  0  0  0  0  0  0  0  0
   -4.6453    1.5098   -3.8577 H   0  0  0  0  0  0  0  0  0  0  0  0
   -4.5940   -0.2570   -4.0663 H   0  0  0  0  0  0  0  0  0  0  0  0
   -2.5042    0.8811   -3.1288 H   0  0  0  0  0  0  0  0  0  0  0  0
  1  2  2  0  0  0  0
  2  3  1  0  0  0  0
  2  4  1  0  0  0  0
  4  5  1  0  0  0  0
  5  6  1  0  0  0  0
  6  7  2  0  0  0  0
  7  8  1  0  0  0  0
  8  9  2  0  0  0  0
  9 10  1  0  0  0  0
  9 11  1  0  0  0  0
 11 12  2  0  0  0  0
  4 13  1  0  0  0  0
 13 14  1  0  0  0  0
 14 15  2  0  0  0  0
 14 16  1  0  0  0  0
 16 17  1  0  0  0  0
 17 18  1  0  0  0  0
 18 19  1  0  0  0  0
 19 20  1  0  0  0  0
 20 21  1  0  0  0  0
 21 22  2  0  0  0  0
 21 23  1  0  0  0  0
 23 24  1  0  0  0  0
 24 25  1  0  0  0  0
 25 26  1  0  0  0  0
 26 27  1  0  0  0  0
  6 12  1  0  0  0  0
 16 20  1  0  0  0  0
 23 27  1  0  0  0  0
  3 28  1  0  0  0  0
  4 29  1  0  0  0  0
  5 30  1  0  0  0  0
  5 31  1  0  0  0  0
  7 32  1  0  0  0  0
  8 33  1  0  0  0  0
 10 34  1  0  0  0  0
 11 35  1  0  0  0  0
 12 36  1  0  0  0  0
 13 37  1  0  0  0  0
 16 38  1  0  0  0  0
 17 39  1  0  0  0  0
 17 40  1  0  0  0  0
 18 41  1  0  0  0  0
 18 42  1  0  0  0  0
 19 43  1  0  0  0  0
 19 44  1  0  0  0  0
 23 45  1  0  0  0  0
 24 46  1  0  0  0  0
 24 47  1  0  0  0  0
 25 48  1  0  0  0  0
 25 49  1  0  0  0  0
 26 50  1  0  0  0  0
 26 51  1  0  0  0  0
 27 52  1  0  0  0  0
M  END
$$$$
PPY.sdf
  PyMOL2.5          3D                             0

 52 54  0  0  1  0  0  0  0  0999 V2000
    1.7344    2.6461    2.1974 O   0  0  0  0  0  0  0  0  0  0  0  0
    2.3155    1.5713    2.2220 C   0  0  0  0  0  0  0  0  0  0  0  0
    3.4821    1.4462    2.8866 O   0  0  0  0  0  0  0  0  0  0  0  0
    1.8580    0.2797    1.5540 C   0  0  2  0  0  0  0  0  0  0  0  0
    2.1495    0.3365    0.0474 C   0  0  0  0  0  0  0  0  0  0  0  0
    3.6212    0.2640   -0.2833 C   0  0  0  0  0  0  0  0  0  0  0  0
    4.3104   -0.9532   -0.1759 C   0  0  0  0  0  0  0  0  0  0  0  0
    5.6745   -1.0235   -0.4659 C   0  0  0  0  0  0  0  0  0  0  0  0
    6.3488    0.1259   -0.8642 C   0  0  0  0  0  0  0  0  0  0  0  0
    7.6807    0.1027   -1.1560 O   0  0  0  0  0  0  0  0  0  0  0  0
    5.6821    1.3396   -0.9775 C   0  0  0  0  0  0  0  0  0  0  0  0
    4.3189    1.4106   -0.6874 C   0  0  0  0  0  0  0  0  0  0  0  0
    0.4244    0.1246    1.8008 N   0  0  0  0  0  0  0  0  0  0  0  0
   -0.2000   -1.0986    1.6970 C   0  0  0  0  0  0  0  0  0  0  0  0
    0.4214   -2.1402    1.4990 O   0  0  0  0  0  0  0  0  0  0  0  0
   -1.7403   -1.0311    1.8145 C   0  0  2  0  0  0  0  0  0  0  0  0
   -2.3741   -2.4127    1.9719 C   0  0  0  0  0  0  0  0  0  0  0  0
   -2.5766   -2.8686    0.5343 C   0  0  0  0  0  0  0  0  0  0  0  0
   -2.9497   -1.5835   -0.1926 C   0  0  0  0  0  0  0  0  0  0  0  0
   -2.3268   -0.5098    0.5699 N   0  0  0  0  0  0  0  0  0  0  0  0
   -2.3547    0.8491    0.3418 C   0  0  0  0  0  0  0  0  0  0  0  0
   -1.7992    1.6085    1.1479 O   0  0  0  0  0  0  0  0  0  0  0  0
   -3.0680    1.4569   -0.8807 C   0  0  2  0  0  0  0  0  0  0  0  0
   -4.5851    1.3598   -0.8633 C   0  0  0  0  0  0  0  0  0  0  0  0
   -4.9466    1.2346   -2.3310 C   0  0  0  0  0  0  0  0  0  0  0  0
   -3.7872    0.4503   -2.9124 C   0  0  0  0  0  0  0  0  0  0  0  0
   -2.6130    0.9156   -2.1791 N   0  0  0  0  0  0  0  0  0  0  0  0
    3.6559    2.3429    3.2405 H   0  0  0  0  0  0  0  0  0  0  0  0
    2.3673   -0.5679    2.0280 H   0  0  0  0  0  0  0  0  0  0  0  0
    1.6470   -0.4919   -0.4697 H   0  0  0  0  0  0  0  0  0  0  0  0
    1.7172    1.2487   -0.3862 H   0  0  0  0  0  0  0  0  0  0  0  0
    3.7849   -1.8547    0.1356 H   0  0  0  0  0  0  0  0  0  0  0  0
    6.1871   -1.9756   -0.3749 H   0  0  0  0  0  0  0  0  0  0  0  0
    8.0059   -0.8039   -1.0328 H   0  0  0  0  0  0  0  0  0  0  0  0
    6.2218    2.2285   -1.2910 H   0  0  0  0  0  0  0  0  0  0  0  0
    3.8084    2.3669   -0.7792 H   0  0  0  0  0  0  0  0  0  0  0  0
   -0.1642    0.9629    1.7473 H   0  0  0  0  0  0  0  0  0  0  0  0
   -1.9961   -0.3892    2.6658 H   0  0  0  0  0  0  0  0  0  0  0  0
   -1.7707   -3.1158    2.5533 H   0  0  0  0  0  0  0  0  0  0  0  0
   -3.3513   -2.3173    2.4614 H   0  0  0  0  0  0  0  0  0  0  0  0
   -1.6407   -3.2712    0.1296 H   0  0  0  0  0  0  0  0  0  0  0  0
   -3.3440   -3.6418    0.4367 H   0  0  0  0  0  0  0  0  0  0  0  0
   -2.5795   -1.6031   -1.2175 H   0  0  0  0  0  0  0  0  0  0  0  0
   -4.0324   -1.4407   -0.1922 H   0  0  0  0  0  0  0  0  0  0  0  0
   -2.7932    2.5203   -0.8918 H   0  0  0  0  0  0  0  0  0  0  0  0
   -4.9467    0.4941   -0.3025 H   0  0  0  0  0  0  0  0  0  0  0  0
   -5.0452    2.2484   -0.4180 H   0  0  0  0  0  0  0  0  0  0  0  0
   -5.9085    0.7357   -2.4803 H   0  0  0  0  0  0  0  0  0  0  0  0
   -5.0008    2.2296   -2.7894 H   0  0  0  0  0  0  0  0  0  0  0  0
   -3.9423   -0.6216   -2.7539 H   0  0  0  0  0  0  0  0  0  0  0  0
   -3.6775    0.6204   -3.9873 H   0  0  0  0  0  0  0  0  0  0  0  0
   -1.9032    0.1953   -2.0723 H   0  0  0  0  0  0  0  0  0  0  0  0
  1  2  2  0  0  0  0
  2  3  1  0  0  0  0
  2  4  1  0  0  0  0
  4  5  1  0  0  0  0
  5  6  1  0  0  0  0
  6  7  2  0  0  0  0
  7  8  1  0  0  0  0
  8  9  2  0  0  0  0
  9 10  1  0  0  0  0
  9 11  1  0  0  0  0
 11 12  2  0  0  0  0
  4 13  1  0  0  0  0
 13 14  1  0  0  0  0
 14 15  2  0  0  0  0
 14 16  1  0  0  0  0
 16 17  1  0  0  0  0
 17 18  1  0  0  0  0
 18 19  1  0  0  0  0
 19 20  1  0  0  0  0
 20 21  1  0  0  0  0
 21 22  2  0  0  0  0
 21 23  1  0  0  0  0
 23 24  1  0  0  0  0
 24 25  1  0  0  0  0
 25 26  1  0  0  0  0
 26 27  1  0  0  0  0
  6 12  1  0  0  0  0
 16 20  1  0  0  0  0
 23 27  1  0  0  0  0
  3 28  1  0  0  0  0
  4 29  1  0  0  0  0
  5 30  1  0  0  0  0
  5 31  1  0  0  0  0
  7 32  1  0  0  0  0
  8 33  1  0  0  0  0
 10 34  1  0  0  0  0
 11 35  1  0  0  0  0
 12 36  1  0  0  0  0
 13 37  1  0  0  0  0
 16 38  1  0  0  0  0
 17 39  1  0  0  0  0
 17 40  1  0  0  0  0
 18 41  1  0  0  0  0
 18 42  1  0  0  0  0
 19 43  1  0  0  0  0
 19 44  1  0  0  0  0
 23 45  1  0  0  0  0
 24 46  1  0  0  0  0
 24 47  1  0  0  0  0
 25 48  1  0  0  0  0
 25 49  1  0  0  0  0
 26 50  1  0  0  0  0
 26 51  1  0  0  0  0
 27 52  1  0  0  0  0
M  END
$$$$
PPY.sdf
  PyMOL2.5          3D                             0

 52 54  0  0  1  0  0  0  0  0999 V2000
    0.3470    1.7018   -0.5183 O   0  0  0  0  0  0  0  0  0  0  0  0
    1.3155    1.4773    0.1956 C   0  0  0  0  0  0  0  0  0  0  0  0
    2.2083    2.4540    0.4539 O   0  0  0  0  0  0  0  0  0  0  0  0
    1.6690    0.1434    0.8627 C   0  0  2  0  0  0  0  0  0  0  0  0
    2.4520   -0.7431   -0.1129 C   0  0  0  0  0  0  0  0  0  0  0  0
    3.8468   -0.2481   -0.4131 C   0  0  0  0  0  0  0  0  0  0  0  0
    4.1532    0.2924   -1.6700 C   0  0  0  0  0  0  0  0  0  0  0  0
    5.4401    0.7583   -1.9429 C   0  0  0  0  0  0  0  0  0  0  0  0
    6.4217    0.6857   -0.9628 C   0  0  0  0  0  0  0  0  0  0  0  0
    7.6643    1.1545   -1.2718 O   0  0  0  0  0  0  0  0  0  0  0  0
    6.1394    0.1514    0.2897 C   0  0  0  0  0  0  0  0  0  0  0  0
    4.8520   -0.3162    0.5630 C   0  0  0  0  0  0  0  0  0  0  0  0
    0.4127   -0.5155    1.2366 N   0  0  0  0  0  0  0  0  0  0  0  0
   -0.2833   -0.0969    2.3457 C   0  0  0  0  0  0  0  0  0  0  0  0
    0.2262    0.6218    3.2050 O   0  0  0  0  0  0  0  0  0  0  0  0
   -1.7439   -0.5826    2.4651 C   0  0  2  0  0  0  0  0  0  0  0  0
   -1.9864   -2.0828    2.5181 C   0  0  0  0  0  0  0  0  0  0  0  0
   -3.5056   -2.1967    2.3056 C   0  0  0  0  0  0  0  0  0  0  0  0
   -3.9759   -0.7940    1.8858 C   0  0  0  0  0  0  0  0  0  0  0  0
   -2.7546   -0.0962    1.5155 N   0  0  0  0  0  0  0  0  0  0  0  0
   -2.4969   -0.1434    0.1377 C   0  0  0  0  0  0  0  0  0  0  0  0
   -1.5970   -0.8270   -0.3514 O   0  0  0  0  0  0  0  0  0  0  0  0
   -3.4109    0.7712   -0.7089 C   0  0  2  0  0  0  0  0  0  0  0  0
   -4.2544   -0.0411   -1.6902 C   0  0  0  0  0  0  0  0  0  0  0  0
   -3.8402    0.4469   -3.0698 C   0  0  0  0  0  0  0  0  0  0  0  0
   -2.4657    1.0397   -2.8490 C   0  0  0  0  0  0  0  0  0  0  0  0
   -2.5922    1.6823   -1.5425 N   0  0  0  0  0  0  0  0  0  0  0  0
    1.8603    3.2398   -0.0153 H   0  0  0  0  0  0  0  0  0  0  0  0
    2.2363    0.3433    1.7789 H   0  0  0  0  0  0  0  0  0  0  0  0
    2.5357   -1.7593    0.2962 H   0  0  0  0  0  0  0  0  0  0  0  0
    1.8908   -0.8548   -1.0508 H   0  0  0  0  0  0  0  0  0  0  0  0
    3.3939    0.3575   -2.4463 H   0  0  0  0  0  0  0  0  0  0  0  0
    5.6754    1.1776   -2.9169 H   0  0  0  0  0  0  0  0  0  0  0  0
    8.2342    1.0514   -0.4923 H   0  0  0  0  0  0  0  0  0  0  0  0
    6.9003    0.0910    1.0611 H   0  0  0  0  0  0  0  0  0  0  0  0
    4.6377   -0.7331    1.5450 H   0  0  0  0  0  0  0  0  0  0  0  0
   -0.1788   -0.8028    0.4523 H   0  0  0  0  0  0  0  0  0  0  0  0
   -2.0680   -0.1730    3.4359 H   0  0  0  0  0  0  0  0  0  0  0  0
   -1.6689   -2.5199    3.4701 H   0  0  0  0  0  0  0  0  0  0  0  0
   -1.4532   -2.6114    1.7200 H   0  0  0  0  0  0  0  0  0  0  0  0
   -3.7186   -2.9309    1.5207 H   0  0  0  0  0  0  0  0  0  0  0  0
   -4.0218   -2.5238    3.2140 H   0  0  0  0  0  0  0  0  0  0  0  0
   -4.4185   -0.2673    2.7388 H   0  0  0  0  0  0  0  0  0  0  0  0
   -4.7117   -0.8385    1.0779 H   0  0  0  0  0  0  0  0  0  0  0  0
   -4.0437    1.3729   -0.0479 H   0  0  0  0  0  0  0  0  0  0  0  0
   -5.3257    0.1265   -1.5351 H   0  0  0  0  0  0  0  0  0  0  0  0
   -4.0689   -1.1176   -1.5993 H   0  0  0  0  0  0  0  0  0  0  0  0
   -4.5379    1.2196   -3.4158 H   0  0  0  0  0  0  0  0  0  0  0  0
   -3.8348   -0.3594   -3.8091 H   0  0  0  0  0  0  0  0  0  0  0  0
   -2.2002    1.7619   -3.6260 H   0  0  0  0  0  0  0  0  0  0  0  0
   -1.6995    0.2565   -2.8275 H   0  0  0  0  0  0  0  0  0  0  0  0
   -1.6560    1.7969   -1.1308 H   0  0  0  0  0  0  0  0  0  0  0  0
  1  2  2  0  0  0  0
  2  3  1  0  0  0  0
  2  4  1  0  0  0  0
  4  5  1  0  0  0  0
  5  6  1  0  0  0  0
  6  7  2  0  0  0  0
  7  8  1  0  0  0  0
  8  9  2  0  0  0  0
  9 10  1  0  0  0  0
  9 11  1  0  0  0  0
 11 12  2  0  0  0  0
  4 13  1  0  0  0  0
 13 14  1  0  0  0  0
 14 15  2  0  0  0  0
 14 16  1  0  0  0  0
 16 17  1  0  0  0  0
 17 18  1  0  0  0  0
 18 19  1  0  0  0  0
 19 20  1  0  0  0  0
 20 21  1  0  0  0  0
 21 22  2  0  0  0  0
 21 23  1  0  0  0  0
 23 24  1  0  0  0  0
 24 25  1  0  0  0  0
 25 26  1  0  0  0  0
 26 27  1  0  0  0  0
  6 12  1  0  0  0  0
 16 20  1  0  0  0  0
 23 27  1  0  0  0  0
  3 28  1  0  0  0  0
  4 29  1  0  0  0  0
  5 30  1  0  0  0  0
  5 31  1  0  0  0  0
  7 32  1  0  0  0  0
  8 33  1  0  0  0  0
 10 34  1  0  0  0  0
 11 35  1  0  0  0  0
 12 36  1  0  0  0  0
 13 37  1  0  0  0  0
 16 38  1  0  0  0  0
 17 39  1  0  0  0  0
 17 40  1  0  0  0  0
 18 41  1  0  0  0  0
 18 42  1  0  0  0  0
 19 43  1  0  0  0  0
 19 44  1  0  0  0  0
 23 45  1  0  0  0  0
 24 46  1  0  0  0  0
 24 47  1  0  0  0  0
 25 48  1  0  0  0  0
 25 49  1  0  0  0  0
 26 50  1  0  0  0  0
 26 51  1  0  0  0  0
 27 52  1  0  0  0  0
M  END
$$$$
PPY.sdf
  PyMOL2.5          3D                             0

 52 54  0  0  1  0  0  0  0  0999 V2000
    0.3529   -1.5395   -1.2839 O   0  0  0  0  0  0  0  0  0  0  0  0
    1.4313   -1.2759   -0.7649 C   0  0  0  0  0  0  0  0  0  0  0  0
    2.4740   -2.1026   -0.9727 O   0  0  0  0  0  0  0  0  0  0  0  0
    1.7553   -0.0147    0.0522 C   0  0  2  0  0  0  0  0  0  0  0  0
    2.8901   -0.1872    1.0785 C   0  0  0  0  0  0  0  0  0  0  0  0
    4.2478    0.2045    0.5319 C   0  0  0  0  0  0  0  0  0  0  0  0
    4.5831    1.5582    0.3768 C   0  0  0  0  0  0  0  0  0  0  0  0
    5.8295    1.9238   -0.1331 C   0  0  0  0  0  0  0  0  0  0  0  0
    6.7440    0.9399   -0.4866 C   0  0  0  0  0  0  0  0  0  0  0  0
    7.9502    1.3407   -0.9805 O   0  0  0  0  0  0  0  0  0  0  0  0
    6.4334   -0.4076   -0.3382 C   0  0  0  0  0  0  0  0  0  0  0  0
    5.1854   -0.7732    0.1717 C   0  0  0  0  0  0  0  0  0  0  0  0
    0.5068    0.4681    0.6542 N   0  0  0  0  0  0  0  0  0  0  0  0
   -0.1182   -0.2149    1.6821 C   0  0  0  0  0  0  0  0  0  0  0  0
    0.4298   -1.1181    2.3084 O   0  0  0  0  0  0  0  0  0  0  0  0
   -1.5761    0.2399    1.9283 C   0  0  2  0  0  0  0  0  0  0  0  0
   -2.1689   -0.3649    3.2021 C   0  0  0  0  0  0  0  0  0  0  0  0
   -2.7687   -1.6823    2.7202 C   0  0  0  0  0  0  0  0  0  0  0  0
   -3.3181   -1.3248    1.3477 C   0  0  0  0  0  0  0  0  0  0  0  0
   -2.4368   -0.2759    0.8592 N   0  0  0  0  0  0  0  0  0  0  0  0
   -2.4888    0.3165   -0.3866 C   0  0  0  0  0  0  0  0  0  0  0  0
   -1.7649    1.2833   -0.6499 O   0  0  0  0  0  0  0  0  0  0  0  0
   -3.4429   -0.3068   -1.4352 C   0  0  2  0  0  0  0  0  0  0  0  0
   -3.3043    0.3257   -2.8145 C   0  0  0  0  0  0  0  0  0  0  0  0
   -4.2695    1.5045   -2.8045 C   0  0  0  0  0  0  0  0  0  0  0  0
   -5.0988    1.3374   -1.5410 C   0  0  0  0  0  0  0  0  0  0  0  0
   -4.8622   -0.0395   -1.0877 N   0  0  0  0  0  0  0  0  0  0  0  0
    2.0924   -2.8235   -1.5157 H   0  0  0  0  0  0  0  0  0  0  0  0
    2.0240    0.7541   -0.6829 H   0  0  0  0  0  0  0  0  0  0  0  0
    2.7096    0.4459    1.9581 H   0  0  0  0  0  0  0  0  0  0  0  0
    2.9283   -1.2159    1.4586 H   0  0  0  0  0  0  0  0  0  0  0  0
    3.8763    2.3366    0.6561 H   0  0  0  0  0  0  0  0  0  0  0  0
    6.0866    2.9724   -0.2513 H   0  0  0  0  0  0  0  0  0  0  0  0
    8.4841    0.5509   -1.1647 H   0  0  0  0  0  0  0  0  0  0  0  0
    7.1416   -1.1831   -0.6110 H   0  0  0  0  0  0  0  0  0  0  0  0
    4.9462   -1.8287    0.2846 H   0  0  0  0  0  0  0  0  0  0  0  0
   -0.1337    0.9535    0.0206 H   0  0  0  0  0  0  0  0  0  0  0  0
   -1.6037    1.3351    1.9563 H   0  0  0  0  0  0  0  0  0  0  0  0
   -1.4437   -0.5055    4.0088 H   0  0  0  0  0  0  0  0  0  0  0  0
   -2.9726    0.2810    3.5770 H   0  0  0  0  0  0  0  0  0  0  0  0
   -3.5390   -2.0703    3.3924 H   0  0  0  0  0  0  0  0  0  0  0  0
   -1.9841   -2.4421    2.6266 H   0  0  0  0  0  0  0  0  0  0  0  0
   -3.3319   -2.1796    0.6666 H   0  0  0  0  0  0  0  0  0  0  0  0
   -4.3284   -0.9122    1.4340 H   0  0  0  0  0  0  0  0  0  0  0  0
   -3.2395   -1.3814   -1.4884 H   0  0  0  0  0  0  0  0  0  0  0  0
   -3.6200   -0.3887   -3.5853 H   0  0  0  0  0  0  0  0  0  0  0  0
   -2.2843    0.6405   -3.0560 H   0  0  0  0  0  0  0  0  0  0  0  0
   -4.8979    1.4867   -3.7017 H   0  0  0  0  0  0  0  0  0  0  0  0
   -3.7297    2.4573   -2.7899 H   0  0  0  0  0  0  0  0  0  0  0  0
   -6.1629    1.5167   -1.7237 H   0  0  0  0  0  0  0  0  0  0  0  0
   -4.7743    2.0439   -0.7684 H   0  0  0  0  0  0  0  0  0  0  0  0
   -5.4386   -0.6582   -1.6600 H   0  0  0  0  0  0  0  0  0  0  0  0
  1  2  2  0  0  0  0
  2  3  1  0  0  0  0
  2  4  1  0  0  0  0
  4  5  1  0  0  0  0
  5  6  1  0  0  0  0
  6  7  2  0  0  0  0
  7  8  1  0  0  0  0
  8  9  2  0  0  0  0
  9 10  1  0  0  0  0
  9 11  1  0  0  0  0
 11 12  2  0  0  0  0
  4 13  1  0  0  0  0
 13 14  1  0  0  0  0
 14 15  2  0  0  0  0
 14 16  1  0  0  0  0
 16 17  1  0  0  0  0
 17 18  1  0  0  0  0
 18 19  1  0  0  0  0
 19 20  1  0  0  0  0
 20 21  1  0  0  0  0
 21 22  2  0  0  0  0
 21 23  1  0  0  0  0
 23 24  1  0  0  0  0
 24 25  1  0  0  0  0
 25 26  1  0  0  0  0
 26 27  1  0  0  0  0
  6 12  1  0  0  0  0
 16 20  1  0  0  0  0
 23 27  1  0  0  0  0
  3 28  1  0  0  0  0
  4 29  1  0  0  0  0
  5 30  1  0  0  0  0
  5 31  1  0  0  0  0
  7 32  1  0  0  0  0
  8 33  1  0  0  0  0
 10 34  1  0  0  0  0
 11 35  1  0  0  0  0
 12 36  1  0  0  0  0
 13 37  1  0  0  0  0
 16 38  1  0  0  0  0
 17 39  1  0  0  0  0
 17 40  1  0  0  0  0
 18 41  1  0  0  0  0
 18 42  1  0  0  0  0
 19 43  1  0  0  0  0
 19 44  1  0  0  0  0
 23 45  1  0  0  0  0
 24 46  1  0  0  0  0
 24 47  1  0  0  0  0
 25 48  1  0  0  0  0
 25 49  1  0  0  0  0
 26 50  1  0  0  0  0
 26 51  1  0  0  0  0
 27 52  1  0  0  0  0
M  END
$$$$
PPY.sdf
  PyMOL2.5          3D                             0

 52 54  0  0  1  0  0  0  0  0999 V2000
    3.5328   -1.6235    1.8736 O   0  0  0  0  0  0  0  0  0  0  0  0
    2.4233   -1.1237    1.9629 C   0  0  0  0  0  0  0  0  0  0  0  0
    1.6909   -1.3372    3.0841 O   0  0  0  0  0  0  0  0  0  0  0  0
    1.7513   -0.1768    0.9576 C   0  0  2  0  0  0  0  0  0  0  0  0
    2.5297    1.1451    0.8915 C   0  0  0  0  0  0  0  0  0  0  0  0
    3.6501    1.1243   -0.1214 C   0  0  0  0  0  0  0  0  0  0  0  0
    3.3794    1.3740   -1.4751 C   0  0  0  0  0  0  0  0  0  0  0  0
    4.4075    1.3455   -2.4181 C   0  0  0  0  0  0  0  0  0  0  0  0
    5.7054    1.0621   -2.0133 C   0  0  0  0  0  0  0  0  0  0  0  0
    6.6786    1.0407   -2.9678 O   0  0  0  0  0  0  0  0  0  0  0  0
    5.9944    0.8063   -0.6773 C   0  0  0  0  0  0  0  0  0  0  0  0
    4.9659    0.8377    0.2676 C   0  0  0  0  0  0  0  0  0  0  0  0
    0.3628    0.0858    1.3820 N   0  0  0  0  0  0  0  0  0  0  0  0
   -0.6748   -0.6849    0.8858 C   0  0  0  0  0  0  0  0  0  0  0  0
   -0.5223   -1.4740   -0.0411 O   0  0  0  0  0  0  0  0  0  0  0  0
   -2.0254   -0.4340    1.5884 C   0  0  2  0  0  0  0  0  0  0  0  0
   -1.9639   -1.0137    3.0108 C   0  0  0  0  0  0  0  0  0  0  0  0
   -3.3958   -1.4382    3.2941 C   0  0  0  0  0  0  0  0  0  0  0  0
   -3.8693   -1.9417    1.9427 C   0  0  0  0  0  0  0  0  0  0  0  0
   -3.2003   -1.0773    0.9857 N   0  0  0  0  0  0  0  0  0  0  0  0
   -3.8673   -0.6776   -0.1665 C   0  0  0  0  0  0  0  0  0  0  0  0
   -5.0210   -1.0513   -0.3939 O   0  0  0  0  0  0  0  0  0  0  0  0
   -3.1004    0.2261   -1.1522 C   0  0  2  0  0  0  0  0  0  0  0  0
   -3.9863    0.9989   -2.1213 C   0  0  0  0  0  0  0  0  0  0  0  0
   -3.1299    1.1709   -3.3741 C   0  0  0  0  0  0  0  0  0  0  0  0
   -1.9030    0.2993   -3.1486 C   0  0  0  0  0  0  0  0  0  0  0  0
   -2.3062   -0.5985   -2.0792 N   0  0  0  0  0  0  0  0  0  0  0  0
    2.2436   -1.9702    3.5929 H   0  0  0  0  0  0  0  0  0  0  0  0
    1.7302   -0.6870   -0.0116 H   0  0  0  0  0  0  0  0  0  0  0  0
    2.9284    1.4153    1.8784 H   0  0  0  0  0  0  0  0  0  0  0  0
    1.8542    1.9679    0.6187 H   0  0  0  0  0  0  0  0  0  0  0  0
    2.3663    1.5906   -1.8070 H   0  0  0  0  0  0  0  0  0  0  0  0
    4.1958    1.5388   -3.4659 H   0  0  0  0  0  0  0  0  0  0  0  0
    7.5176    0.7921   -2.5468 H   0  0  0  0  0  0  0  0  0  0  0  0
    7.0046    0.5772   -0.3534 H   0  0  0  0  0  0  0  0  0  0  0  0
    5.2008    0.6243    1.3084 H   0  0  0  0  0  0  0  0  0  0  0  0
    0.2669    0.4026    2.3400 H   0  0  0  0  0  0  0  0  0  0  0  0
   -2.2174    0.6452    1.6202 H   0  0  0  0  0  0  0  0  0  0  0  0
   -1.3045   -1.8898    3.0539 H   0  0  0  0  0  0  0  0  0  0  0  0
   -1.5964   -0.2852    3.7403 H   0  0  0  0  0  0  0  0  0  0  0  0
   -3.4697   -2.1967    4.0780 H   0  0  0  0  0  0  0  0  0  0  0  0
   -3.9863   -0.5661    3.6000 H   0  0  0  0  0  0  0  0  0  0  0  0
   -4.9588   -1.9157    1.8524 H   0  0  0  0  0  0  0  0  0  0  0  0
   -3.5208   -2.9641    1.7593 H   0  0  0  0  0  0  0  0  0  0  0  0
   -2.4600    0.9323   -0.6141 H   0  0  0  0  0  0  0  0  0  0  0  0
   -4.9041    0.4565   -2.3771 H   0  0  0  0  0  0  0  0  0  0  0  0
   -4.2861    1.9671   -1.7061 H   0  0  0  0  0  0  0  0  0  0  0  0
   -3.6903    0.8468   -4.2582 H   0  0  0  0  0  0  0  0  0  0  0  0
   -2.8448    2.2180   -3.5212 H   0  0  0  0  0  0  0  0  0  0  0  0
   -1.6172   -0.2473   -4.0517 H   0  0  0  0  0  0  0  0  0  0  0  0
   -1.0504    0.9119   -2.8327 H   0  0  0  0  0  0  0  0  0  0  0  0
   -1.5076   -1.0288   -1.5992 H   0  0  0  0  0  0  0  0  0  0  0  0
  1  2  2  0  0  0  0
  2  3  1  0  0  0  0
  2  4  1  0  0  0  0
  4  5  1  0  0  0  0
  5  6  1  0  0  0  0
  6  7  2  0  0  0  0
  7  8  1  0  0  0  0
  8  9  2  0  0  0  0
  9 10  1  0  0  0  0
  9 11  1  0  0  0  0
 11 12  2  0  0  0  0
  4 13  1  0  0  0  0
 13 14  1  0  0  0  0
 14 15  2  0  0  0  0
 14 16  1  0  0  0  0
 16 17  1  0  0  0  0
 17 18  1  0  0  0  0
 18 19  1  0  0  0  0
 19 20  1  0  0  0  0
 20 21  1  0  0  0  0
 21 22  2  0  0  0  0
 21 23  1  0  0  0  0
 23 24  1  0  0  0  0
 24 25  1  0  0  0  0
 25 26  1  0  0  0  0
 26 27  1  0  0  0  0
  6 12  1  0  0  0  0
 16 20  1  0  0  0  0
 23 27  1  0  0  0  0
  3 28  1  0  0  0  0
  4 29  1  0  0  0  0
  5 30  1  0  0  0  0
  5 31  1  0  0  0  0
  7 32  1  0  0  0  0
  8 33  1  0  0  0  0
 10 34  1  0  0  0  0
 11 35  1  0  0  0  0
 12 36  1  0  0  0  0
 13 37  1  0  0  0  0
 16 38  1  0  0  0  0
 17 39  1  0  0  0  0
 17 40  1  0  0  0  0
 18 41  1  0  0  0  0
 18 42  1  0  0  0  0
 19 43  1  0  0  0  0
 19 44  1  0  0  0  0
 23 45  1  0  0  0  0
 24 46  1  0  0  0  0
 24 47  1  0  0  0  0
 25 48  1  0  0  0  0
 25 49  1  0  0  0  0
 26 50  1  0  0  0  0
 26 51  1  0  0  0  0
 27 52  1  0  0  0  0
M  END
$$$$
PPY.sdf
  PyMOL2.5          3D                             0

 52 54  0  0  1  0  0  0  0  0999 V2000
    0.0746    1.5968   -2.4923 O   0  0  0  0  0  0  0  0  0  0  0  0
    0.9205    2.2125   -1.8566 C   0  0  0  0  0  0  0  0  0  0  0  0
    1.2933    3.4518   -2.2302 O   0  0  0  0  0  0  0  0  0  0  0  0
    1.6908    1.6833   -0.6498 C   0  0  2  0  0  0  0  0  0  0  0  0
    2.9361    0.9461   -1.1604 C   0  0  0  0  0  0  0  0  0  0  0  0
    3.8119    0.2766   -0.1202 C   0  0  0  0  0  0  0  0  0  0  0  0
    4.5690   -0.8475   -0.4936 C   0  0  0  0  0  0  0  0  0  0  0  0
    5.4111   -1.4843    0.4220 C   0  0  0  0  0  0  0  0  0  0  0  0
    5.5076   -0.9913    1.7173 C   0  0  0  0  0  0  0  0  0  0  0  0
    6.3151   -1.5802    2.6444 O   0  0  0  0  0  0  0  0  0  0  0  0
    4.7821    0.1267    2.1048 C   0  0  0  0  0  0  0  0  0  0  0  0
    3.9428    0.7645    1.1878 C   0  0  0  0  0  0  0  0  0  0  0  0
    0.7795    0.7908    0.0652 N   0  0  0  0  0  0  0  0  0  0  0  0
    0.1621    1.1851    1.2367 C   0  0  0  0  0  0  0  0  0  0  0  0
    0.5707    2.1186    1.9231 O   0  0  0  0  0  0  0  0  0  0  0  0
   -0.9524    0.2344    1.7097 C   0  0  2  0  0  0  0  0  0  0  0  0
   -0.3470   -0.9083    2.5300 C   0  0  0  0  0  0  0  0  0  0  0  0
   -1.2337   -2.1001    2.1999 C   0  0  0  0  0  0  0  0  0  0  0  0
   -1.5668   -1.8888    0.7319 C   0  0  0  0  0  0  0  0  0  0  0  0
   -1.6217   -0.4430    0.5864 N   0  0  0  0  0  0  0  0  0  0  0  0
   -2.4610    0.2726   -0.2519 C   0  0  0  0  0  0  0  0  0  0  0  0
   -2.5823    1.4936   -0.1276 O   0  0  0  0  0  0  0  0  0  0  0  0
   -3.1919   -0.5142   -1.3670 C   0  0  2  0  0  0  0  0  0  0  0  0
   -3.7802    0.3953   -2.4391 C   0  0  0  0  0  0  0  0  0  0  0  0
   -5.1822    0.7336   -1.9462 C   0  0  0  0  0  0  0  0  0  0  0  0
   -5.4135   -0.1617   -0.7396 C   0  0  0  0  0  0  0  0  0  0  0  0
   -4.3869   -1.2097   -0.8245 N   0  0  0  0  0  0  0  0  0  0  0  0
    0.6897    3.6770   -2.9691 H   0  0  0  0  0  0  0  0  0  0  0  0
    1.9547    2.5335   -0.0123 H   0  0  0  0  0  0  0  0  0  0  0  0
    3.5673    1.6483   -1.7210 H   0  0  0  0  0  0  0  0  0  0  0  0
    2.6134    0.1807   -1.8806 H   0  0  0  0  0  0  0  0  0  0  0  0
    4.5068   -1.2371   -1.5077 H   0  0  0  0  0  0  0  0  0  0  0  0
    5.9793   -2.3530    0.1060 H   0  0  0  0  0  0  0  0  0  0  0  0
    6.7675   -2.3312    2.2277 H   0  0  0  0  0  0  0  0  0  0  0  0
    4.8685    0.5074    3.1187 H   0  0  0  0  0  0  0  0  0  0  0  0
    3.3934    1.6417    1.5232 H   0  0  0  0  0  0  0  0  0  0  0  0
    0.2306    0.1557   -0.5055 H   0  0  0  0  0  0  0  0  0  0  0  0
   -1.7035    0.8003    2.2719 H   0  0  0  0  0  0  0  0  0  0  0  0
   -0.3359   -0.6826    3.6009 H   0  0  0  0  0  0  0  0  0  0  0  0
    0.6863   -1.1202    2.2278 H   0  0  0  0  0  0  0  0  0  0  0  0
   -0.7459   -3.0604    2.3880 H   0  0  0  0  0  0  0  0  0  0  0  0
   -2.1492   -2.0554    2.8023 H   0  0  0  0  0  0  0  0  0  0  0  0
   -0.7581   -2.2514    0.0882 H   0  0  0  0  0  0  0  0  0  0  0  0
   -2.4959   -2.3851    0.4515 H   0  0  0  0  0  0  0  0  0  0  0  0
   -2.4850   -1.2236   -1.8107 H   0  0  0  0  0  0  0  0  0  0  0  0
   -3.8562   -0.1480   -3.3893 H   0  0  0  0  0  0  0  0  0  0  0  0
   -3.1883    1.2978   -2.6221 H   0  0  0  0  0  0  0  0  0  0  0  0
   -5.2615    1.7898   -1.6681 H   0  0  0  0  0  0  0  0  0  0  0  0
   -5.9164    0.5371   -2.7353 H   0  0  0  0  0  0  0  0  0  0  0  0
   -6.4197   -0.5922   -0.7370 H   0  0  0  0  0  0  0  0  0  0  0  0
   -5.2950    0.4024    0.1926 H   0  0  0  0  0  0  0  0  0  0  0  0
   -4.6946   -1.8851   -1.5256 H   0  0  0  0  0  0  0  0  0  0  0  0
  1  2  2  0  0  0  0
  2  3  1  0  0  0  0
  2  4  1  0  0  0  0
  4  5  1  0  0  0  0
  5  6  1  0  0  0  0
  6  7  2  0  0  0  0
  7  8  1  0  0  0  0
  8  9  2  0  0  0  0
  9 10  1  0  0  0  0
  9 11  1  0  0  0  0
 11 12  2  0  0  0  0
  4 13  1  0  0  0  0
 13 14  1  0  0  0  0
 14 15  2  0  0  0  0
 14 16  1  0  0  0  0
 16 17  1  0  0  0  0
 17 18  1  0  0  0  0
 18 19  1  0  0  0  0
 19 20  1  0  0  0  0
 20 21  1  0  0  0  0
 21 22  2  0  0  0  0
 21 23  1  0  0  0  0
 23 24  1  0  0  0  0
 24 25  1  0  0  0  0
 25 26  1  0  0  0  0
 26 27  1  0  0  0  0
  6 12  1  0  0  0  0
 16 20  1  0  0  0  0
 23 27  1  0  0  0  0
  3 28  1  0  0  0  0
  4 29  1  0  0  0  0
  5 30  1  0  0  0  0
  5 31  1  0  0  0  0
  7 32  1  0  0  0  0
  8 33  1  0  0  0  0
 10 34  1  0  0  0  0
 11 35  1  0  0  0  0
 12 36  1  0  0  0  0
 13 37  1  0  0  0  0
 16 38  1  0  0  0  0
 17 39  1  0  0  0  0
 17 40  1  0  0  0  0
 18 41  1  0  0  0  0
 18 42  1  0  0  0  0
 19 43  1  0  0  0  0
 19 44  1  0  0  0  0
 23 45  1  0  0  0  0
 24 46  1  0  0  0  0
 24 47  1  0  0  0  0
 25 48  1  0  0  0  0
 25 49  1  0  0  0  0
 26 50  1  0  0  0  0
 26 51  1  0  0  0  0
 27 52  1  0  0  0  0
M  END
$$$$
PPY.sdf
  PyMOL2.5          3D                             0

 52 54  0  0  1  0  0  0  0  0999 V2000
    2.1927    0.8131    2.9540 O   0  0  0  0  0  0  0  0  0  0  0  0
    2.4948    0.0213    2.0703 C   0  0  0  0  0  0  0  0  0  0  0  0
    3.0637   -1.1600    2.3738 O   0  0  0  0  0  0  0  0  0  0  0  0
    2.3028    0.2463    0.5724 C   0  0  2  0  0  0  0  0  0  0  0  0
    3.4517    1.0939    0.0140 C   0  0  0  0  0  0  0  0  0  0  0  0
    4.7822    0.3808   -0.0181 C   0  0  0  0  0  0  0  0  0  0  0  0
    5.7987    0.7265    0.8847 C   0  0  0  0  0  0  0  0  0  0  0  0
    7.0270    0.0615    0.8585 C   0  0  0  0  0  0  0  0  0  0  0  0
    7.2379   -0.9505   -0.0719 C   0  0  0  0  0  0  0  0  0  0  0  0
    8.4214   -1.6246   -0.1326 O   0  0  0  0  0  0  0  0  0  0  0  0
    6.2429   -1.3062   -0.9734 C   0  0  0  0  0  0  0  0  0  0  0  0
    5.0160   -0.6419   -0.9483 C   0  0  0  0  0  0  0  0  0  0  0  0
    1.0276    0.9591    0.4141 N   0  0  0  0  0  0  0  0  0  0  0  0
   -0.1567    0.2578    0.2687 C   0  0  0  0  0  0  0  0  0  0  0  0
   -0.1859   -0.9631    0.1364 O   0  0  0  0  0  0  0  0  0  0  0  0
   -1.4197    1.1442    0.3741 C   0  0  2  0  0  0  0  0  0  0  0  0
   -1.7887    1.3730    1.8388 C   0  0  0  0  0  0  0  0  0  0  0  0
   -2.6673    0.1682    2.1594 C   0  0  0  0  0  0  0  0  0  0  0  0
   -3.4315   -0.0786    0.8625 C   0  0  0  0  0  0  0  0  0  0  0  0
   -2.5973    0.4933   -0.1838 N   0  0  0  0  0  0  0  0  0  0  0  0
   -2.7981    0.4809   -1.5450 C   0  0  0  0  0  0  0  0  0  0  0  0
   -1.9913    1.0400   -2.2993 O   0  0  0  0  0  0  0  0  0  0  0  0
   -4.0630   -0.1538   -2.1476 C   0  0  2  0  0  0  0  0  0  0  0  0
   -5.3453    0.6270   -1.8760 C   0  0  0  0  0  0  0  0  0  0  0  0
   -6.3640   -0.4253   -1.4529 C   0  0  0  0  0  0  0  0  0  0  0  0
   -5.7482   -1.7422   -1.8872 C   0  0  0  0  0  0  0  0  0  0  0  0
   -4.3276   -1.5189   -1.6504 N   0  0  0  0  0  0  0  0  0  0  0  0
    3.1100   -1.1786    3.3512 H   0  0  0  0  0  0  0  0  0  0  0  0
    2.2322   -0.7240    0.0687 H   0  0  0  0  0  0  0  0  0  0  0  0
    3.5476    2.0248    0.5896 H   0  0  0  0  0  0  0  0  0  0  0  0
    3.2124    1.4118   -1.0101 H   0  0  0  0  0  0  0  0  0  0  0  0
    5.6422    1.5167    1.6159 H   0  0  0  0  0  0  0  0  0  0  0  0
    7.7997    0.3455    1.5656 H   0  0  0  0  0  0  0  0  0  0  0  0
    9.0147   -1.2697    0.5489 H   0  0  0  0  0  0  0  0  0  0  0  0
    6.4207   -2.0990   -1.6945 H   0  0  0  0  0  0  0  0  0  0  0  0
    4.2453   -0.9298   -1.6607 H   0  0  0  0  0  0  0  0  0  0  0  0
    0.9694    1.8760    0.8415 H   0  0  0  0  0  0  0  0  0  0  0  0
   -1.2281    2.0906   -0.1449 H   0  0  0  0  0  0  0  0  0  0  0  0
   -2.3816    2.2908    1.9351 H   0  0  0  0  0  0  0  0  0  0  0  0
   -0.9286    1.4463    2.5108 H   0  0  0  0  0  0  0  0  0  0  0  0
   -3.3321    0.3402    3.0106 H   0  0  0  0  0  0  0  0  0  0  0  0
   -2.0384   -0.6991    2.3940 H   0  0  0  0  0  0  0  0  0  0  0  0
   -4.3918    0.4441    0.8682 H   0  0  0  0  0  0  0  0  0  0  0  0
   -3.5943   -1.1462    0.7055 H   0  0  0  0  0  0  0  0  0  0  0  0
   -3.9051   -0.2149   -3.2332 H   0  0  0  0  0  0  0  0  0  0  0  0
   -5.6815    1.1183   -2.7970 H   0  0  0  0  0  0  0  0  0  0  0  0
   -5.2401    1.4045   -1.1129 H   0  0  0  0  0  0  0  0  0  0  0  0
   -7.3451   -0.2554   -1.9064 H   0  0  0  0  0  0  0  0  0  0  0  0
   -6.4877   -0.4041   -0.3633 H   0  0  0  0  0  0  0  0  0  0  0  0
   -5.9387   -1.9331   -2.9498 H   0  0  0  0  0  0  0  0  0  0  0  0
   -6.1292   -2.5856   -1.3049 H   0  0  0  0  0  0  0  0  0  0  0  0
   -3.7464   -2.1923   -2.1485 H   0  0  0  0  0  0  0  0  0  0  0  0
  1  2  2  0  0  0  0
  2  3  1  0  0  0  0
  2  4  1  0  0  0  0
  4  5  1  0  0  0  0
  5  6  1  0  0  0  0
  6  7  2  0  0  0  0
  7  8  1  0  0  0  0
  8  9  2  0  0  0  0
  9 10  1  0  0  0  0
  9 11  1  0  0  0  0
 11 12  2  0  0  0  0
  4 13  1  0  0  0  0
 13 14  1  0  0  0  0
 14 15  2  0  0  0  0
 14 16  1  0  0  0  0
 16 17  1  0  0  0  0
 17 18  1  0  0  0  0
 18 19  1  0  0  0  0
 19 20  1  0  0  0  0
 20 21  1  0  0  0  0
 21 22  2  0  0  0  0
 21 23  1  0  0  0  0
 23 24  1  0  0  0  0
 24 25  1  0  0  0  0
 25 26  1  0  0  0  0
 26 27  1  0  0  0  0
  6 12  1  0  0  0  0
 16 20  1  0  0  0  0
 23 27  1  0  0  0  0
  3 28  1  0  0  0  0
  4 29  1  0  0  0  0
  5 30  1  0  0  0  0
  5 31  1  0  0  0  0
  7 32  1  0  0  0  0
  8 33  1  0  0  0  0
 10 34  1  0  0  0  0
 11 35  1  0  0  0  0
 12 36  1  0  0  0  0
 13 37  1  0  0  0  0
 16 38  1  0  0  0  0
 17 39  1  0  0  0  0
 17 40  1  0  0  0  0
 18 41  1  0  0  0  0
 18 42  1  0  0  0  0
 19 43  1  0  0  0  0
 19 44  1  0  0  0  0
 23 45  1  0  0  0  0
 24 46  1  0  0  0  0
 24 47  1  0  0  0  0
 25 48  1  0  0  0  0
 25 49  1  0  0  0  0
 26 50  1  0  0  0  0
 26 51  1  0  0  0  0
 27 52  1  0  0  0  0
M  END
$$$$
PPY.sdf
  PyMOL2.5          3D                             0

 52 54  0  0  1  0  0  0  0  0999 V2000
    0.5111   -2.0067   -0.4367 O   0  0  0  0  0  0  0  0  0  0  0  0
    1.3633   -1.1990   -0.7837 C   0  0  0  0  0  0  0  0  0  0  0  0
    2.1892   -1.4752   -1.8098 O   0  0  0  0  0  0  0  0  0  0  0  0
    1.6008    0.1691   -0.1521 C   0  0  2  0  0  0  0  0  0  0  0  0
    2.5511    0.0511    1.0456 C   0  0  0  0  0  0  0  0  0  0  0  0
    3.9871   -0.2108    0.6583 C   0  0  0  0  0  0  0  0  0  0  0  0
    4.7642    0.8148    0.1009 C   0  0  0  0  0  0  0  0  0  0  0  0
    6.0891    0.5764   -0.2658 C   0  0  0  0  0  0  0  0  0  0  0  0
    6.6399   -0.6846   -0.0758 C   0  0  0  0  0  0  0  0  0  0  0  0
    7.9383   -0.8740   -0.4471 O   0  0  0  0  0  0  0  0  0  0  0  0
    5.8866   -1.7154    0.4766 C   0  0  0  0  0  0  0  0  0  0  0  0
    4.5599   -1.4774    0.8436 C   0  0  0  0  0  0  0  0  0  0  0  0
    0.2903    0.6672    0.2724 N   0  0  0  0  0  0  0  0  0  0  0  0
    0.0261    2.0122    0.3915 C   0  0  0  0  0  0  0  0  0  0  0  0
    0.9125    2.8636    0.3683 O   0  0  0  0  0  0  0  0  0  0  0  0
   -1.4359    2.3553    0.7342 C   0  0  2  0  0  0  0  0  0  0  0  0
   -1.5660    2.5557    2.2474 C   0  0  0  0  0  0  0  0  0  0  0  0
   -2.9903    2.1147    2.5458 C   0  0  0  0  0  0  0  0  0  0  0  0
   -3.1872    0.9372    1.6054 C   0  0  0  0  0  0  0  0  0  0  0  0
   -2.3972    1.2778    0.4325 N   0  0  0  0  0  0  0  0  0  0  0  0
   -2.7245    0.9922   -0.8841 C   0  0  0  0  0  0  0  0  0  0  0  0
   -2.1768    1.6041   -1.8037 O   0  0  0  0  0  0  0  0  0  0  0  0
   -3.7951   -0.0952   -1.1331 C   0  0  2  0  0  0  0  0  0  0  0  0
   -3.5030   -1.4407   -0.4690 C   0  0  0  0  0  0  0  0  0  0  0  0
   -3.8348   -2.4986   -1.5176 C   0  0  0  0  0  0  0  0  0  0  0  0
   -4.5322   -1.7357   -2.6258 C   0  0  0  0  0  0  0  0  0  0  0  0
   -3.8705   -0.4444   -2.5651 N   0  0  0  0  0  0  0  0  0  0  0  0
    1.9050   -2.3535   -2.1356 H   0  0  0  0  0  0  0  0  0  0  0  0
    1.9826    0.8541   -0.9183 H   0  0  0  0  0  0  0  0  0  0  0  0
    2.5283    0.9728    1.6423 H   0  0  0  0  0  0  0  0  0  0  0  0
    2.2028   -0.7387    1.7252 H   0  0  0  0  0  0  0  0  0  0  0  0
    4.3418    1.8070   -0.0497 H   0  0  0  0  0  0  0  0  0  0  0  0
    6.6880    1.3729   -0.6979 H   0  0  0  0  0  0  0  0  0  0  0  0
    8.1824   -1.7939   -0.2564 H   0  0  0  0  0  0  0  0  0  0  0  0
    6.3105   -2.7026    0.6287 H   0  0  0  0  0  0  0  0  0  0  0  0
    3.9770   -2.2881    1.2751 H   0  0  0  0  0  0  0  0  0  0  0  0
   -0.5075    0.0468    0.1709 H   0  0  0  0  0  0  0  0  0  0  0  0
   -1.7347    3.2501    0.1761 H   0  0  0  0  0  0  0  0  0  0  0  0
   -0.8584    1.9226    2.7978 H   0  0  0  0  0  0  0  0  0  0  0  0
   -1.3802    3.5930    2.5426 H   0  0  0  0  0  0  0  0  0  0  0  0
   -3.6878    2.9213    2.2894 H   0  0  0  0  0  0  0  0  0  0  0  0
   -3.1449    1.8477    3.5947 H   0  0  0  0  0  0  0  0  0  0  0  0
   -4.2410    0.7795    1.3659 H   0  0  0  0  0  0  0  0  0  0  0  0
   -2.7665    0.0210    2.0331 H   0  0  0  0  0  0  0  0  0  0  0  0
   -4.7677    0.2974   -0.8124 H   0  0  0  0  0  0  0  0  0  0  0  0
   -2.4607   -1.5432   -0.1476 H   0  0  0  0  0  0  0  0  0  0  0  0
   -4.1397   -1.5785    0.4121 H   0  0  0  0  0  0  0  0  0  0  0  0
   -4.4594   -3.2999   -1.1110 H   0  0  0  0  0  0  0  0  0  0  0  0
   -2.9069   -2.9507   -1.8893 H   0  0  0  0  0  0  0  0  0  0  0  0
   -5.6042   -1.6345   -2.4211 H   0  0  0  0  0  0  0  0  0  0  0  0
   -4.4043   -2.2170   -3.5992 H   0  0  0  0  0  0  0  0  0  0  0  0
   -4.3504    0.2807   -3.0941 H   0  0  0  0  0  0  0  0  0  0  0  0
  1  2  2  0  0  0  0
  2  3  1  0  0  0  0
  2  4  1  0  0  0  0
  4  5  1  0  0  0  0
  5  6  1  0  0  0  0
  6  7  2  0  0  0  0
  7  8  1  0  0  0  0
  8  9  2  0  0  0  0
  9 10  1  0  0  0  0
  9 11  1  0  0  0  0
 11 12  2  0  0  0  0
  4 13  1  0  0  0  0
 13 14  1  0  0  0  0
 14 15  2  0  0  0  0
 14 16  1  0  0  0  0
 16 17  1  0  0  0  0
 17 18  1  0  0  0  0
 18 19  1  0  0  0  0
 19 20  1  0  0  0  0
 20 21  1  0  0  0  0
 21 22  2  0  0  0  0
 21 23  1  0  0  0  0
 23 24  1  0  0  0  0
 24 25  1  0  0  0  0
 25 26  1  0  0  0  0
 26 27  1  0  0  0  0
  6 12  1  0  0  0  0
 16 20  1  0  0  0  0
 23 27  1  0  0  0  0
  3 28  1  0  0  0  0
  4 29  1  0  0  0  0
  5 30  1  0  0  0  0
  5 31  1  0  0  0  0
  7 32  1  0  0  0  0
  8 33  1  0  0  0  0
 10 34  1  0  0  0  0
 11 35  1  0  0  0  0
 12 36  1  0  0  0  0
 13 37  1  0  0  0  0
 16 38  1  0  0  0  0
 17 39  1  0  0  0  0
 17 40  1  0  0  0  0
 18 41  1  0  0  0  0
 18 42  1  0  0  0  0
 19 43  1  0  0  0  0
 19 44  1  0  0  0  0
 23 45  1  0  0  0  0
 24 46  1  0  0  0  0
 24 47  1  0  0  0  0
 25 48  1  0  0  0  0
 25 49  1  0  0  0  0
 26 50  1  0  0  0  0
 26 51  1  0  0  0  0
 27 52  1  0  0  0  0
M  END
$$$$
PPY.sdf
  PyMOL2.5          3D                             0

 52 54  0  0  1  0  0  0  0  0999 V2000
    1.3831   -2.1927    1.9633 O   0  0  0  0  0  0  0  0  0  0  0  0
    1.7677   -1.7184    0.9041 C   0  0  0  0  0  0  0  0  0  0  0  0
    2.2473   -2.5246   -0.0647 O   0  0  0  0  0  0  0  0  0  0  0  0
    1.7687   -0.2412    0.5175 C   0  0  2  0  0  0  0  0  0  0  0  0
    2.9536    0.4650    1.1935 C   0  0  0  0  0  0  0  0  0  0  0  0
    4.2920    0.0853    0.6043 C   0  0  0  0  0  0  0  0  0  0  0  0
    4.6857    0.6010   -0.6395 C   0  0  0  0  0  0  0  0  0  0  0  0
    5.9144    0.2438   -1.1983 C   0  0  0  0  0  0  0  0  0  0  0  0
    6.7496   -0.6303   -0.5107 C   0  0  0  0  0  0  0  0  0  0  0  0
    7.9576   -1.0063   -1.0200 O   0  0  0  0  0  0  0  0  0  0  0  0
    6.3766   -1.1497    0.7229 C   0  0  0  0  0  0  0  0  0  0  0  0
    5.1486   -0.7933    1.2818 C   0  0  0  0  0  0  0  0  0  0  0  0
    0.4909    0.3419    0.9391 N   0  0  0  0  0  0  0  0  0  0  0  0
    0.0438    1.5196    0.3884 C   0  0  0  0  0  0  0  0  0  0  0  0
    0.7411    2.2030   -0.3611 O   0  0  0  0  0  0  0  0  0  0  0  0
   -1.3875    1.9470    0.7792 C   0  0  2  0  0  0  0  0  0  0  0  0
   -1.7133    1.9699    2.2642 C   0  0  0  0  0  0  0  0  0  0  0  0
   -3.2143    2.2848    2.2667 C   0  0  0  0  0  0  0  0  0  0  0  0
   -3.7191    1.9147    0.8615 C   0  0  0  0  0  0  0  0  0  0  0  0
   -2.5729    1.3162    0.1898 N   0  0  0  0  0  0  0  0  0  0  0  0
   -2.6170   -0.0726    0.0002 C   0  0  0  0  0  0  0  0  0  0  0  0
   -1.7626   -0.8251    0.4705 O   0  0  0  0  0  0  0  0  0  0  0  0
   -3.8356   -0.6118   -0.7866 C   0  0  2  0  0  0  0  0  0  0  0  0
   -3.6462   -2.0383   -1.3084 C   0  0  0  0  0  0  0  0  0  0  0  0
   -4.1279   -2.0067   -2.7548 C   0  0  0  0  0  0  0  0  0  0  0  0
   -4.8505   -0.6819   -2.8880 C   0  0  0  0  0  0  0  0  0  0  0  0
   -4.0841    0.1855   -2.0044 N   0  0  0  0  0  0  0  0  0  0  0  0
    2.1875   -3.4242    0.3175 H   0  0  0  0  0  0  0  0  0  0  0  0
    1.8177   -0.1622   -0.5755 H   0  0  0  0  0  0  0  0  0  0  0  0
    2.9525    0.2551    2.2719 H   0  0  0  0  0  0  0  0  0  0  0  0
    2.8510    1.5550    1.1158 H   0  0  0  0  0  0  0  0  0  0  0  0
    4.0330    1.2863   -1.1786 H   0  0  0  0  0  0  0  0  0  0  0  0
    6.1971    0.6550   -2.1618 H   0  0  0  0  0  0  0  0  0  0  0  0
    8.0779   -0.5662   -1.8772 H   0  0  0  0  0  0  0  0  0  0  0  0
    7.0402   -1.8303    1.2484 H   0  0  0  0  0  0  0  0  0  0  0  0
    4.8673   -1.2069    2.2477 H   0  0  0  0  0  0  0  0  0  0  0  0
   -0.2574   -0.3281    1.1416 H   0  0  0  0  0  0  0  0  0  0  0  0
   -1.4376    2.9918    0.4302 H   0  0  0  0  0  0  0  0  0  0  0  0
   -1.5376    0.9935    2.7306 H   0  0  0  0  0  0  0  0  0  0  0  0
   -1.1299    2.7138    2.8151 H   0  0  0  0  0  0  0  0  0  0  0  0
   -3.3950    3.3473    2.4637 H   0  0  0  0  0  0  0  0  0  0  0  0
   -3.7313    1.7126    3.0441 H   0  0  0  0  0  0  0  0  0  0  0  0
   -4.5884    1.2570    0.9209 H   0  0  0  0  0  0  0  0  0  0  0  0
   -3.9969    2.8182    0.3076 H   0  0  0  0  0  0  0  0  0  0  0  0
   -4.7153   -0.5933   -0.1332 H   0  0  0  0  0  0  0  0  0  0  0  0
   -2.6107   -2.3921   -1.2685 H   0  0  0  0  0  0  0  0  0  0  0  0
   -4.2564   -2.7359   -0.7229 H   0  0  0  0  0  0  0  0  0  0  0  0
   -3.2643   -2.0385   -3.4306 H   0  0  0  0  0  0  0  0  0  0  0  0
   -4.7731   -2.8576   -2.9933 H   0  0  0  0  0  0  0  0  0  0  0  0
   -5.8881   -0.7643   -2.5440 H   0  0  0  0  0  0  0  0  0  0  0  0
   -4.8510   -0.3158   -3.9183 H   0  0  0  0  0  0  0  0  0  0  0  0
   -4.5808    1.0452   -1.7869 H   0  0  0  0  0  0  0  0  0  0  0  0
  1  2  2  0  0  0  0
  2  3  1  0  0  0  0
  2  4  1  0  0  0  0
  4  5  1  0  0  0  0
  5  6  1  0  0  0  0
  6  7  2  0  0  0  0
  7  8  1  0  0  0  0
  8  9  2  0  0  0  0
  9 10  1  0  0  0  0
  9 11  1  0  0  0  0
 11 12  2  0  0  0  0
  4 13  1  0  0  0  0
 13 14  1  0  0  0  0
 14 15  2  0  0  0  0
 14 16  1  0  0  0  0
 16 17  1  0  0  0  0
 17 18  1  0  0  0  0
 18 19  1  0  0  0  0
 19 20  1  0  0  0  0
 20 21  1  0  0  0  0
 21 22  2  0  0  0  0
 21 23  1  0  0  0  0
 23 24  1  0  0  0  0
 24 25  1  0  0  0  0
 25 26  1  0  0  0  0
 26 27  1  0  0  0  0
  6 12  1  0  0  0  0
 16 20  1  0  0  0  0
 23 27  1  0  0  0  0
  3 28  1  0  0  0  0
  4 29  1  0  0  0  0
  5 30  1  0  0  0  0
  5 31  1  0  0  0  0
  7 32  1  0  0  0  0
  8 33  1  0  0  0  0
 10 34  1  0  0  0  0
 11 35  1  0  0  0  0
 12 36  1  0  0  0  0
 13 37  1  0  0  0  0
 16 38  1  0  0  0  0
 17 39  1  0  0  0  0
 17 40  1  0  0  0  0
 18 41  1  0  0  0  0
 18 42  1  0  0  0  0
 19 43  1  0  0  0  0
 19 44  1  0  0  0  0
 23 45  1  0  0  0  0
 24 46  1  0  0  0  0
 24 47  1  0  0  0  0
 25 48  1  0  0  0  0
 25 49  1  0  0  0  0
 26 50  1  0  0  0  0
 26 51  1  0  0  0  0
 27 52  1  0  0  0  0
M  END
$$$$
PPY.sdf
  PyMOL2.5          3D                             0

 52 54  0  0  1  0  0  0  0  0999 V2000
    3.7915    1.8407    2.2351 O   0  0  0  0  0  0  0  0  0  0  0  0
    2.7778    1.8946    1.5569 C   0  0  0  0  0  0  0  0  0  0  0  0
    1.9677    2.9755    1.6730 O   0  0  0  0  0  0  0  0  0  0  0  0
    2.3260    0.8897    0.4875 C   0  0  2  0  0  0  0  0  0  0  0  0
    3.3095    0.9086   -0.6915 C   0  0  0  0  0  0  0  0  0  0  0  0
    4.4959   -0.0062   -0.4956 C   0  0  0  0  0  0  0  0  0  0  0  0
    4.3781   -1.3775   -0.7667 C   0  0  0  0  0  0  0  0  0  0  0  0
    5.4662   -2.2309   -0.5794 C   0  0  0  0  0  0  0  0  0  0  0  0
    6.6711   -1.7186   -0.1164 C   0  0  0  0  0  0  0  0  0  0  0  0
    7.7078   -2.5874    0.0563 O   0  0  0  0  0  0  0  0  0  0  0  0
    6.8078   -0.3630    0.1630 C   0  0  0  0  0  0  0  0  0  0  0  0
    5.7195    0.4921   -0.0272 C   0  0  0  0  0  0  0  0  0  0  0  0
    0.9786    1.2453    0.0134 N   0  0  0  0  0  0  0  0  0  0  0  0
   -0.1433    0.6557    0.5676 C   0  0  0  0  0  0  0  0  0  0  0  0
   -0.0751   -0.2654    1.3784 O   0  0  0  0  0  0  0  0  0  0  0  0
   -1.4724    1.3112    0.1284 C   0  0  2  0  0  0  0  0  0  0  0  0
   -1.7904    2.5172    1.0132 C   0  0  0  0  0  0  0  0  0  0  0  0
   -2.5839    1.8995    2.1627 C   0  0  0  0  0  0  0  0  0  0  0  0
   -3.4067    0.8184    1.4748 C   0  0  0  0  0  0  0  0  0  0  0  0
   -2.5995    0.4139    0.3366 N   0  0  0  0  0  0  0  0  0  0  0  0
   -2.8682   -0.6015   -0.5573 C   0  0  0  0  0  0  0  0  0  0  0  0
   -2.1712   -0.7622   -1.5629 O   0  0  0  0  0  0  0  0  0  0  0  0
   -4.0640   -1.5297   -0.2299 C   0  0  2  0  0  0  0  0  0  0  0  0
   -4.1915   -2.6996   -1.1980 C   0  0  0  0  0  0  0  0  0  0  0  0
   -5.0613   -2.1758   -2.3340 C   0  0  0  0  0  0  0  0  0  0  0  0
   -5.6007   -0.8401   -1.8471 C   0  0  0  0  0  0  0  0  0  0  0  0
   -5.3574   -0.8162   -0.3987 N   0  0  0  0  0  0  0  0  0  0  0  0
    2.3867    3.4892    2.3968 H   0  0  0  0  0  0  0  0  0  0  0  0
    2.2797   -0.0962    0.9629 H   0  0  0  0  0  0  0  0  0  0  0  0
    2.7996    0.5938   -1.6128 H   0  0  0  0  0  0  0  0  0  0  0  0
    3.6593    1.9303   -0.8911 H   0  0  0  0  0  0  0  0  0  0  0  0
    3.4372   -1.7916   -1.1242 H   0  0  0  0  0  0  0  0  0  0  0  0
    5.3715   -3.2922   -0.7902 H   0  0  0  0  0  0  0  0  0  0  0  0
    8.4647   -2.0946    0.4123 H   0  0  0  0  0  0  0  0  0  0  0  0
    7.7434    0.0448    0.5314 H   0  0  0  0  0  0  0  0  0  0  0  0
    5.8324    1.5488    0.2055 H   0  0  0  0  0  0  0  0  0  0  0  0
    0.8685    2.1865   -0.3435 H   0  0  0  0  0  0  0  0  0  0  0  0
   -1.3993    1.5900   -0.9291 H   0  0  0  0  0  0  0  0  0  0  0  0
   -0.9082    3.0587    1.3658 H   0  0  0  0  0  0  0  0  0  0  0  0
   -2.4309    3.2204    0.4669 H   0  0  0  0  0  0  0  0  0  0  0  0
   -1.8981    1.4469    2.8888 H   0  0  0  0  0  0  0  0  0  0  0  0
   -3.2055    2.6278    2.6909 H   0  0  0  0  0  0  0  0  0  0  0  0
   -3.6185   -0.0294    2.1312 H   0  0  0  0  0  0  0  0  0  0  0  0
   -4.3480    1.2317    1.0988 H   0  0  0  0  0  0  0  0  0  0  0  0
   -3.9423   -1.8961    0.7949 H   0  0  0  0  0  0  0  0  0  0  0  0
   -3.2318   -3.0766   -1.5649 H   0  0  0  0  0  0  0  0  0  0  0  0
   -4.7079   -3.5345   -0.7077 H   0  0  0  0  0  0  0  0  0  0  0  0
   -5.8717   -2.8818   -2.5462 H   0  0  0  0  0  0  0  0  0  0  0  0
   -4.4780   -2.0465   -3.2519 H   0  0  0  0  0  0  0  0  0  0  0  0
   -6.6655   -0.7231   -2.0716 H   0  0  0  0  0  0  0  0  0  0  0  0
   -5.0704   -0.0096   -2.3271 H   0  0  0  0  0  0  0  0  0  0  0  0
   -6.0788   -1.3850    0.0466 H   0  0  0  0  0  0  0  0  0  0  0  0
  1  2  2  0  0  0  0
  2  3  1  0  0  0  0
  2  4  1  0  0  0  0
  4  5  1  0  0  0  0
  5  6  1  0  0  0  0
  6  7  2  0  0  0  0
  7  8  1  0  0  0  0
  8  9  2  0  0  0  0
  9 10  1  0  0  0  0
  9 11  1  0  0  0  0
 11 12  2  0  0  0  0
  4 13  1  0  0  0  0
 13 14  1  0  0  0  0
 14 15  2  0  0  0  0
 14 16  1  0  0  0  0
 16 17  1  0  0  0  0
 17 18  1  0  0  0  0
 18 19  1  0  0  0  0
 19 20  1  0  0  0  0
 20 21  1  0  0  0  0
 21 22  2  0  0  0  0
 21 23  1  0  0  0  0
 23 24  1  0  0  0  0
 24 25  1  0  0  0  0
 25 26  1  0  0  0  0
 26 27  1  0  0  0  0
  6 12  1  0  0  0  0
 16 20  1  0  0  0  0
 23 27  1  0  0  0  0
  3 28  1  0  0  0  0
  4 29  1  0  0  0  0
  5 30  1  0  0  0  0
  5 31  1  0  0  0  0
  7 32  1  0  0  0  0
  8 33  1  0  0  0  0
 10 34  1  0  0  0  0
 11 35  1  0  0  0  0
 12 36  1  0  0  0  0
 13 37  1  0  0  0  0
 16 38  1  0  0  0  0
 17 39  1  0  0  0  0
 17 40  1  0  0  0  0
 18 41  1  0  0  0  0
 18 42  1  0  0  0  0
 19 43  1  0  0  0  0
 19 44  1  0  0  0  0
 23 45  1  0  0  0  0
 24 46  1  0  0  0  0
 24 47  1  0  0  0  0
 25 48  1  0  0  0  0
 25 49  1  0  0  0  0
 26 50  1  0  0  0  0
 26 51  1  0  0  0  0
 27 52  1  0  0  0  0
M  END
$$$$
PPY.sdf
  PyMOL2.5          3D                             0

 52 54  0  0  1  0  0  0  0  0999 V2000
    1.5063    0.9790   -2.8257 O   0  0  0  0  0  0  0  0  0  0  0  0
    2.0176    0.2821   -1.9573 C   0  0  0  0  0  0  0  0  0  0  0  0
    2.4853   -0.9357   -2.2785 O   0  0  0  0  0  0  0  0  0  0  0  0
    2.2227    0.7201   -0.5035 C   0  0  2  0  0  0  0  0  0  0  0  0
    2.6046   -0.3977    0.4841 C   0  0  0  0  0  0  0  0  0  0  0  0
    4.1023   -0.6008    0.5904 C   0  0  0  0  0  0  0  0  0  0  0  0
    4.7281   -1.6719   -0.0623 C   0  0  0  0  0  0  0  0  0  0  0  0
    6.1106   -1.8495    0.0281 C   0  0  0  0  0  0  0  0  0  0  0  0
    6.8682   -0.9535    0.7745 C   0  0  0  0  0  0  0  0  0  0  0  0
    8.2201   -1.0889    0.8892 O   0  0  0  0  0  0  0  0  0  0  0  0
    6.2664    0.1127    1.4307 C   0  0  0  0  0  0  0  0  0  0  0  0
    4.8852    0.2896    1.3406 C   0  0  0  0  0  0  0  0  0  0  0  0
    1.0314    1.4868   -0.0952 N   0  0  0  0  0  0  0  0  0  0  0  0
   -0.1649    0.8534    0.1996 C   0  0  0  0  0  0  0  0  0  0  0  0
   -0.2640   -0.3678    0.2921 O   0  0  0  0  0  0  0  0  0  0  0  0
   -1.3300    1.8288    0.4884 C   0  0  2  0  0  0  0  0  0  0  0  0
   -1.2150    2.3950    1.9042 C   0  0  0  0  0  0  0  0  0  0  0  0
   -1.9611    1.3631    2.7476 C   0  0  0  0  0  0  0  0  0  0  0  0
   -3.1096    0.9361    1.8442 C   0  0  0  0  0  0  0  0  0  0  0  0
   -2.6105    1.1326    0.4941 N   0  0  0  0  0  0  0  0  0  0  0  0
   -3.2522    0.8310   -0.6850 C   0  0  0  0  0  0  0  0  0  0  0  0
   -2.7872    1.1699   -1.7776 O   0  0  0  0  0  0  0  0  0  0  0  0
   -4.5674    0.0267   -0.5902 C   0  0  2  0  0  0  0  0  0  0  0  0
   -4.2810   -1.4570   -0.3771 C   0  0  0  0  0  0  0  0  0  0  0  0
   -4.5197   -2.0752   -1.7401 C   0  0  0  0  0  0  0  0  0  0  0  0
   -5.6378   -1.2235   -2.2984 C   0  0  0  0  0  0  0  0  0  0  0  0
   -5.3212    0.1418   -1.8715 N   0  0  0  0  0  0  0  0  0  0  0  0
    2.2359   -1.0371   -3.2214 H   0  0  0  0  0  0  0  0  0  0  0  0
    3.0281    1.4651   -0.5370 H   0  0  0  0  0  0  0  0  0  0  0  0
    2.1231   -1.3479    0.2225 H   0  0  0  0  0  0  0  0  0  0  0  0
    2.2438   -0.1523    1.4924 H   0  0  0  0  0  0  0  0  0  0  0  0
    4.1396   -2.3761   -0.6474 H   0  0  0  0  0  0  0  0  0  0  0  0
    6.5717   -2.6861   -0.4867 H   0  0  0  0  0  0  0  0  0  0  0  0
    8.4928   -1.8796    0.3957 H   0  0  0  0  0  0  0  0  0  0  0  0
    6.8707    0.8022    2.0132 H   0  0  0  0  0  0  0  0  0  0  0  0
    4.4242    1.1243    1.8637 H   0  0  0  0  0  0  0  0  0  0  0  0
    0.9376    2.3914   -0.5442 H   0  0  0  0  0  0  0  0  0  0  0  0
   -1.3289    2.6188   -0.2710 H   0  0  0  0  0  0  0  0  0  0  0  0
   -1.7372    3.3578    1.9633 H   0  0  0  0  0  0  0  0  0  0  0  0
   -0.1862    2.5402    2.2464 H   0  0  0  0  0  0  0  0  0  0  0  0
   -1.3068    0.5075    2.9537 H   0  0  0  0  0  0  0  0  0  0  0  0
   -2.3064    1.7640    3.7045 H   0  0  0  0  0  0  0  0  0  0  0  0
   -3.9822    1.5842    1.9791 H   0  0  0  0  0  0  0  0  0  0  0  0
   -3.4073   -0.1027    2.0072 H   0  0  0  0  0  0  0  0  0  0  0  0
   -5.1849    0.4359    0.2153 H   0  0  0  0  0  0  0  0  0  0  0  0
   -4.9985   -1.8722    0.3412 H   0  0  0  0  0  0  0  0  0  0  0  0
   -3.2707   -1.6737   -0.0164 H   0  0  0  0  0  0  0  0  0  0  0  0
   -4.7891   -3.1332   -1.6749 H   0  0  0  0  0  0  0  0  0  0  0  0
   -3.6197   -1.9841   -2.3602 H   0  0  0  0  0  0  0  0  0  0  0  0
   -5.7120   -1.2983   -3.3874 H   0  0  0  0  0  0  0  0  0  0  0  0
   -6.6021   -1.5216   -1.8712 H   0  0  0  0  0  0  0  0  0  0  0  0
   -4.6626    0.5463   -2.5509 H   0  0  0  0  0  0  0  0  0  0  0  0
  1  2  2  0  0  0  0
  2  3  1  0  0  0  0
  2  4  1  0  0  0  0
  4  5  1  0  0  0  0
  5  6  1  0  0  0  0
  6  7  2  0  0  0  0
  7  8  1  0  0  0  0
  8  9  2  0  0  0  0
  9 10  1  0  0  0  0
  9 11  1  0  0  0  0
 11 12  2  0  0  0  0
  4 13  1  0  0  0  0
 13 14  1  0  0  0  0
 14 15  2  0  0  0  0
 14 16  1  0  0  0  0
 16 17  1  0  0  0  0
 17 18  1  0  0  0  0
 18 19  1  0  0  0  0
 19 20  1  0  0  0  0
 20 21  1  0  0  0  0
 21 22  2  0  0  0  0
 21 23  1  0  0  0  0
 23 24  1  0  0  0  0
 24 25  1  0  0  0  0
 25 26  1  0  0  0  0
 26 27  1  0  0  0  0
  6 12  1  0  0  0  0
 16 20  1  0  0  0  0
 23 27  1  0  0  0  0
  3 28  1  0  0  0  0
  4 29  1  0  0  0  0
  5 30  1  0  0  0  0
  5 31  1  0  0  0  0
  7 32  1  0  0  0  0
  8 33  1  0  0  0  0
 10 34  1  0  0  0  0
 11 35  1  0  0  0  0
 12 36  1  0  0  0  0
 13 37  1  0  0  0  0
 16 38  1  0  0  0  0
 17 39  1  0  0  0  0
 17 40  1  0  0  0  0
 18 41  1  0  0  0  0
 18 42  1  0  0  0  0
 19 43  1  0  0  0  0
 19 44  1  0  0  0  0
 23 45  1  0  0  0  0
 24 46  1  0  0  0  0
 24 47  1  0  0  0  0
 25 48  1  0  0  0  0
 25 49  1  0  0  0  0
 26 50  1  0  0  0  0
 26 51  1  0  0  0  0
 27 52  1  0  0  0  0
M  END
$$$$
PPY.sdf
  PyMOL2.5          3D                             0

 52 54  0  0  1  0  0  0  0  0999 V2000
    0.9799   -0.8026   -1.6753 O   0  0  0  0  0  0  0  0  0  0  0  0
    1.8792   -0.0689   -1.2892 C   0  0  0  0  0  0  0  0  0  0  0  0
    2.8649    0.2957   -2.1348 O   0  0  0  0  0  0  0  0  0  0  0  0
    2.0501    0.5077    0.1189 C   0  0  2  0  0  0  0  0  0  0  0  0
    2.7386   -0.5189    1.0267 C   0  0  0  0  0  0  0  0  0  0  0  0
    4.1864   -0.7748    0.6811 C   0  0  0  0  0  0  0  0  0  0  0  0
    4.5720   -1.9870    0.0914 C   0  0  0  0  0  0  0  0  0  0  0  0
    5.9086   -2.2182   -0.2370 C   0  0  0  0  0  0  0  0  0  0  0  0
    6.8609   -1.2407    0.0222 C   0  0  0  0  0  0  0  0  0  0  0  0
    8.1544   -1.5078   -0.3168 O   0  0  0  0  0  0  0  0  0  0  0  0
    6.5000   -0.0323    0.6082 C   0  0  0  0  0  0  0  0  0  0  0  0
    5.1626    0.1991    0.9380 C   0  0  0  0  0  0  0  0  0  0  0  0
    0.7222    0.8307    0.6500 N   0  0  0  0  0  0  0  0  0  0  0  0
    0.0624    1.9629    0.2364 C   0  0  0  0  0  0  0  0  0  0  0  0
    0.6192    2.8416   -0.4214 O   0  0  0  0  0  0  0  0  0  0  0  0
   -1.4178    2.0870    0.6579 C   0  0  2  0  0  0  0  0  0  0  0  0
   -1.7161    2.0579    2.1500 C   0  0  0  0  0  0  0  0  0  0  0  0
   -3.2422    1.8853    2.1983 C   0  0  0  0  0  0  0  0  0  0  0  0
   -3.6731    1.5837    0.7542 C   0  0  0  0  0  0  0  0  0  0  0  0
   -2.4402    1.2078    0.0752 N   0  0  0  0  0  0  0  0  0  0  0  0
   -2.2193   -0.1727    0.0185 C   0  0  0  0  0  0  0  0  0  0  0  0
   -1.3364   -0.7253    0.6821 O   0  0  0  0  0  0  0  0  0  0  0  0
   -3.1498   -1.0041   -0.8892 C   0  0  2  0  0  0  0  0  0  0  0  0
   -3.7875   -0.2961   -2.0841 C   0  0  0  0  0  0  0  0  0  0  0  0
   -5.2734   -0.6137   -1.9740 C   0  0  0  0  0  0  0  0  0  0  0  0
   -5.3231   -1.8380   -1.0809 C   0  0  0  0  0  0  0  0  0  0  0  0
   -4.2739   -1.5619   -0.1055 N   0  0  0  0  0  0  0  0  0  0  0  0
    2.6289   -0.1303   -2.9838 H   0  0  0  0  0  0  0  0  0  0  0  0
    2.6239    1.4394    0.0529 H   0  0  0  0  0  0  0  0  0  0  0  0
    2.1828   -1.4665    1.0103 H   0  0  0  0  0  0  0  0  0  0  0  0
    2.6961   -0.1777    2.0701 H   0  0  0  0  0  0  0  0  0  0  0  0
    3.8363   -2.7603   -0.1190 H   0  0  0  0  0  0  0  0  0  0  0  0
    6.2052   -3.1576   -0.6943 H   0  0  0  0  0  0  0  0  0  0  0  0
    8.6975   -0.7361   -0.0876 H   0  0  0  0  0  0  0  0  0  0  0  0
    7.2375    0.7368    0.8139 H   0  0  0  0  0  0  0  0  0  0  0  0
    4.8867    1.1468    1.3962 H   0  0  0  0  0  0  0  0  0  0  0  0
    0.1073    0.0309    0.8279 H   0  0  0  0  0  0  0  0  0  0  0  0
   -1.6951    3.0923    0.3000 H   0  0  0  0  0  0  0  0  0  0  0  0
   -1.3878    2.9720    2.6547 H   0  0  0  0  0  0  0  0  0  0  0  0
   -1.2264    1.2137    2.6483 H   0  0  0  0  0  0  0  0  0  0  0  0
   -3.5018    1.0544    2.8637 H   0  0  0  0  0  0  0  0  0  0  0  0
   -3.7445    2.7817    2.5759 H   0  0  0  0  0  0  0  0  0  0  0  0
   -4.4557    0.8258    0.7228 H   0  0  0  0  0  0  0  0  0  0  0  0
   -4.0523    2.4930    0.2734 H   0  0  0  0  0  0  0  0  0  0  0  0
   -2.5391   -1.8316   -1.2762 H   0  0  0  0  0  0  0  0  0  0  0  0
   -3.3932   -0.7226   -3.0147 H   0  0  0  0  0  0  0  0  0  0  0  0
   -3.6215    0.7835   -2.1283 H   0  0  0  0  0  0  0  0  0  0  0  0
   -5.7316   -0.7908   -2.9515 H   0  0  0  0  0  0  0  0  0  0  0  0
   -5.7979    0.2252   -1.5001 H   0  0  0  0  0  0  0  0  0  0  0  0
   -5.0938   -2.7475   -1.6483 H   0  0  0  0  0  0  0  0  0  0  0  0
   -6.2987   -1.9586   -0.6022 H   0  0  0  0  0  0  0  0  0  0  0  0
   -3.9713   -2.4122    0.3696 H   0  0  0  0  0  0  0  0  0  0  0  0
  1  2  2  0  0  0  0
  2  3  1  0  0  0  0
  2  4  1  0  0  0  0
  4  5  1  0  0  0  0
  5  6  1  0  0  0  0
  6  7  2  0  0  0  0
  7  8  1  0  0  0  0
  8  9  2  0  0  0  0
  9 10  1  0  0  0  0
  9 11  1  0  0  0  0
 11 12  2  0  0  0  0
  4 13  1  0  0  0  0
 13 14  1  0  0  0  0
 14 15  2  0  0  0  0
 14 16  1  0  0  0  0
 16 17  1  0  0  0  0
 17 18  1  0  0  0  0
 18 19  1  0  0  0  0
 19 20  1  0  0  0  0
 20 21  1  0  0  0  0
 21 22  2  0  0  0  0
 21 23  1  0  0  0  0
 23 24  1  0  0  0  0
 24 25  1  0  0  0  0
 25 26  1  0  0  0  0
 26 27  1  0  0  0  0
  6 12  1  0  0  0  0
 16 20  1  0  0  0  0
 23 27  1  0  0  0  0
  3 28  1  0  0  0  0
  4 29  1  0  0  0  0
  5 30  1  0  0  0  0
  5 31  1  0  0  0  0
  7 32  1  0  0  0  0
  8 33  1  0  0  0  0
 10 34  1  0  0  0  0
 11 35  1  0  0  0  0
 12 36  1  0  0  0  0
 13 37  1  0  0  0  0
 16 38  1  0  0  0  0
 17 39  1  0  0  0  0
 17 40  1  0  0  0  0
 18 41  1  0  0  0  0
 18 42  1  0  0  0  0
 19 43  1  0  0  0  0
 19 44  1  0  0  0  0
 23 45  1  0  0  0  0
 24 46  1  0  0  0  0
 24 47  1  0  0  0  0
 25 48  1  0  0  0  0
 25 49  1  0  0  0  0
 26 50  1  0  0  0  0
 26 51  1  0  0  0  0
 27 52  1  0  0  0  0
M  END
$$$$
PPY.sdf
  PyMOL2.5          3D                             0

 52 54  0  0  1  0  0  0  0  0999 V2000
    1.7267   -2.4185    1.9026 O   0  0  0  0  0  0  0  0  0  0  0  0
    0.9615   -1.5073    1.6305 C   0  0  0  0  0  0  0  0  0  0  0  0
   -0.2491   -1.4553    2.2386 O   0  0  0  0  0  0  0  0  0  0  0  0
    1.2004   -0.3605    0.6393 C   0  0  2  0  0  0  0  0  0  0  0  0
    2.4928    0.3863    1.0046 C   0  0  0  0  0  0  0  0  0  0  0  0
    3.7020   -0.1500    0.2724 C   0  0  0  0  0  0  0  0  0  0  0  0
    3.9664    0.2660   -1.0417 C   0  0  0  0  0  0  0  0  0  0  0  0
    5.0731   -0.2287   -1.7344 C   0  0  0  0  0  0  0  0  0  0  0  0
    5.9146   -1.1446   -1.1124 C   0  0  0  0  0  0  0  0  0  0  0  0
    7.0061   -1.6538   -1.7521 O   0  0  0  0  0  0  0  0  0  0  0  0
    5.6651   -1.5726    0.1856 C   0  0  0  0  0  0  0  0  0  0  0  0
    4.5592   -1.0774    0.8785 C   0  0  0  0  0  0  0  0  0  0  0  0
    0.0420    0.5390    0.6533 N   0  0  0  0  0  0  0  0  0  0  0  0
   -0.2162    1.3838   -0.4031 C   0  0  0  0  0  0  0  0  0  0  0  0
    0.6172    1.6462   -1.2686 O   0  0  0  0  0  0  0  0  0  0  0  0
   -1.5747    2.1132   -0.3333 C   0  0  2  0  0  0  0  0  0  0  0  0
   -1.3901    3.4767    0.3417 C   0  0  0  0  0  0  0  0  0  0  0  0
   -1.6666    3.1901    1.8138 C   0  0  0  0  0  0  0  0  0  0  0  0
   -2.7851    2.1635    1.7581 C   0  0  0  0  0  0  0  0  0  0  0  0
   -2.5728    1.4414    0.5149 N   0  0  0  0  0  0  0  0  0  0  0  0
   -3.4331    0.4206    0.1494 C   0  0  0  0  0  0  0  0  0  0  0  0
   -4.3153    0.0337    0.9201 O   0  0  0  0  0  0  0  0  0  0  0  0
   -3.2415   -0.2158   -1.2506 C   0  0  2  0  0  0  0  0  0  0  0  0
   -4.3187   -1.2363   -1.6012 C   0  0  0  0  0  0  0  0  0  0  0  0
   -3.7772   -2.5735   -1.1122 C   0  0  0  0  0  0  0  0  0  0  0  0
   -2.3501   -2.2947   -0.6732 C   0  0  0  0  0  0  0  0  0  0  0  0
   -1.9909   -1.0108   -1.2891 N   0  0  0  0  0  0  0  0  0  0  0  0
   -0.2523   -2.2456    2.8197 H   0  0  0  0  0  0  0  0  0  0  0  0
    1.2429   -0.8039   -0.3632 H   0  0  0  0  0  0  0  0  0  0  0  0
    2.6729    0.3493    2.0873 H   0  0  0  0  0  0  0  0  0  0  0  0
    2.4112    1.4556    0.7686 H   0  0  0  0  0  0  0  0  0  0  0  0
    3.3049    0.9795   -1.5321 H   0  0  0  0  0  0  0  0  0  0  0  0
    5.2565    0.1095   -2.7489 H   0  0  0  0  0  0  0  0  0  0  0  0
    7.0480   -1.2652   -2.6409 H   0  0  0  0  0  0  0  0  0  0  0  0
    6.3268   -2.2932    0.6572 H   0  0  0  0  0  0  0  0  0  0  0  0
    4.3695   -1.4287    1.8905 H   0  0  0  0  0  0  0  0  0  0  0  0
   -0.7878    0.1703    1.1165 H   0  0  0  0  0  0  0  0  0  0  0  0
   -1.9534    2.2207   -1.3536 H   0  0  0  0  0  0  0  0  0  0  0  0
   -2.1419    4.1802   -0.0372 H   0  0  0  0  0  0  0  0  0  0  0  0
   -0.4011    3.9183    0.1859 H   0  0  0  0  0  0  0  0  0  0  0  0
   -0.7770    2.7582    2.2867 H   0  0  0  0  0  0  0  0  0  0  0  0
   -1.9469    4.0852    2.3760 H   0  0  0  0  0  0  0  0  0  0  0  0
   -2.7744    1.4756    2.6090 H   0  0  0  0  0  0  0  0  0  0  0  0
   -3.7667    2.6485    1.7073 H   0  0  0  0  0  0  0  0  0  0  0  0
   -3.2322    0.5839   -1.9973 H   0  0  0  0  0  0  0  0  0  0  0  0
   -5.2967   -1.0133   -1.1635 H   0  0  0  0  0  0  0  0  0  0  0  0
   -4.4491   -1.2817   -2.6899 H   0  0  0  0  0  0  0  0  0  0  0  0
   -3.8070   -3.3104   -1.9225 H   0  0  0  0  0  0  0  0  0  0  0  0
   -4.3726   -2.9639   -0.2802 H   0  0  0  0  0  0  0  0  0  0  0  0
   -2.2922   -2.2130    0.4178 H   0  0  0  0  0  0  0  0  0  0  0  0
   -1.6627   -3.0889   -0.9803 H   0  0  0  0  0  0  0  0  0  0  0  0
   -1.7641   -1.1878   -2.2699 H   0  0  0  0  0  0  0  0  0  0  0  0
  1  2  2  0  0  0  0
  2  3  1  0  0  0  0
  2  4  1  0  0  0  0
  4  5  1  0  0  0  0
  5  6  1  0  0  0  0
  6  7  2  0  0  0  0
  7  8  1  0  0  0  0
  8  9  2  0  0  0  0
  9 10  1  0  0  0  0
  9 11  1  0  0  0  0
 11 12  2  0  0  0  0
  4 13  1  0  0  0  0
 13 14  1  0  0  0  0
 14 15  2  0  0  0  0
 14 16  1  0  0  0  0
 16 17  1  0  0  0  0
 17 18  1  0  0  0  0
 18 19  1  0  0  0  0
 19 20  1  0  0  0  0
 20 21  1  0  0  0  0
 21 22  2  0  0  0  0
 21 23  1  0  0  0  0
 23 24  1  0  0  0  0
 24 25  1  0  0  0  0
 25 26  1  0  0  0  0
 26 27  1  0  0  0  0
  6 12  1  0  0  0  0
 16 20  1  0  0  0  0
 23 27  1  0  0  0  0
  3 28  1  0  0  0  0
  4 29  1  0  0  0  0
  5 30  1  0  0  0  0
  5 31  1  0  0  0  0
  7 32  1  0  0  0  0
  8 33  1  0  0  0  0
 10 34  1  0  0  0  0
 11 35  1  0  0  0  0
 12 36  1  0  0  0  0
 13 37  1  0  0  0  0
 16 38  1  0  0  0  0
 17 39  1  0  0  0  0
 17 40  1  0  0  0  0
 18 41  1  0  0  0  0
 18 42  1  0  0  0  0
 19 43  1  0  0  0  0
 19 44  1  0  0  0  0
 23 45  1  0  0  0  0
 24 46  1  0  0  0  0
 24 47  1  0  0  0  0
 25 48  1  0  0  0  0
 25 49  1  0  0  0  0
 26 50  1  0  0  0  0
 26 51  1  0  0  0  0
 27 52  1  0  0  0  0
M  END
$$$$
PPY.sdf
  PyMOL2.5          3D                             0

 52 54  0  0  1  0  0  0  0  0999 V2000
   -0.5047   -1.3367   -3.1967 O   0  0  0  0  0  0  0  0  0  0  0  0
    0.6862   -1.1012   -3.0463 C   0  0  0  0  0  0  0  0  0  0  0  0
    1.5622   -1.4071   -4.0286 O   0  0  0  0  0  0  0  0  0  0  0  0
    1.3724   -0.5130   -1.8095 C   0  0  2  0  0  0  0  0  0  0  0  0
    1.9839   -1.6646   -1.0003 C   0  0  0  0  0  0  0  0  0  0  0  0
    2.7921   -1.1881    0.1850 C   0  0  0  0  0  0  0  0  0  0  0  0
    4.1257   -0.7867    0.0210 C   0  0  0  0  0  0  0  0  0  0  0  0
    4.8652   -0.3230    1.1116 C   0  0  0  0  0  0  0  0  0  0  0  0
    4.2676   -0.2577    2.3661 C   0  0  0  0  0  0  0  0  0  0  0  0
    4.9524    0.1915    3.4564 O   0  0  0  0  0  0  0  0  0  0  0  0
    2.9466   -0.6476    2.5465 C   0  0  0  0  0  0  0  0  0  0  0  0
    2.2078   -1.1116    1.4578 C   0  0  0  0  0  0  0  0  0  0  0  0
    0.4113    0.2495   -1.0132 N   0  0  0  0  0  0  0  0  0  0  0  0
    0.0117    1.5027   -1.3974 C   0  0  0  0  0  0  0  0  0  0  0  0
    0.4671    2.0600   -2.3961 O   0  0  0  0  0  0  0  0  0  0  0  0
   -1.0324    2.1925   -0.4931 C   0  0  2  0  0  0  0  0  0  0  0  0
   -0.3971    3.4989    0.0210 C   0  0  0  0  0  0  0  0  0  0  0  0
   -0.9723    3.6757    1.4162 C   0  0  0  0  0  0  0  0  0  0  0  0
   -1.0762    2.2469    1.9131 C   0  0  0  0  0  0  0  0  0  0  0  0
   -1.4711    1.4951    0.7332 N   0  0  0  0  0  0  0  0  0  0  0  0
   -2.4817    0.5475    0.8354 C   0  0  0  0  0  0  0  0  0  0  0  0
   -3.0012    0.2749    1.9209 O   0  0  0  0  0  0  0  0  0  0  0  0
   -2.8666   -0.2253   -0.4505 C   0  0  2  0  0  0  0  0  0  0  0  0
   -4.2162   -0.9352   -0.3515 C   0  0  0  0  0  0  0  0  0  0  0  0
   -3.8942   -2.4095   -0.1493 C   0  0  0  0  0  0  0  0  0  0  0  0
   -2.4033   -2.4514    0.1096 C   0  0  0  0  0  0  0  0  0  0  0  0
   -1.8713   -1.3120   -0.6462 N   0  0  0  0  0  0  0  0  0  0  0  0
    0.9973   -1.7295   -4.7621 H   0  0  0  0  0  0  0  0  0  0  0  0
    2.1461    0.1847   -2.1535 H   0  0  0  0  0  0  0  0  0  0  0  0
    2.6315   -2.2784   -1.6405 H   0  0  0  0  0  0  0  0  0  0  0  0
    1.1956   -2.3458   -0.6516 H   0  0  0  0  0  0  0  0  0  0  0  0
    4.5961   -0.8298   -0.9590 H   0  0  0  0  0  0  0  0  0  0  0  0
    5.8956   -0.0173    0.9622 H   0  0  0  0  0  0  0  0  0  0  0  0
    5.8537    0.4233    3.1797 H   0  0  0  0  0  0  0  0  0  0  0  0
    2.4909   -0.5881    3.5307 H   0  0  0  0  0  0  0  0  0  0  0  0
    1.1707   -1.4043    1.6090 H   0  0  0  0  0  0  0  0  0  0  0  0
   -0.2846   -0.2947   -0.4984 H   0  0  0  0  0  0  0  0  0  0  0  0
   -1.9199    2.4111   -1.0967 H   0  0  0  0  0  0  0  0  0  0  0  0
    0.6954    3.4146    0.0847 H   0  0  0  0  0  0  0  0  0  0  0  0
   -0.6238    4.3487   -0.6308 H   0  0  0  0  0  0  0  0  0  0  0  0
   -1.9691    4.1283    1.3519 H   0  0  0  0  0  0  0  0  0  0  0  0
   -0.3484    4.3032    2.0583 H   0  0  0  0  0  0  0  0  0  0  0  0
   -0.0977    1.8684    2.2296 H   0  0  0  0  0  0  0  0  0  0  0  0
   -1.7804    2.1502    2.7437 H   0  0  0  0  0  0  0  0  0  0  0  0
   -2.8697    0.4574   -1.3038 H   0  0  0  0  0  0  0  0  0  0  0  0
   -4.7837   -0.8153   -1.2820 H   0  0  0  0  0  0  0  0  0  0  0  0
   -4.8428   -0.5553    0.4618 H   0  0  0  0  0  0  0  0  0  0  0  0
   -4.1397   -2.9689   -1.0600 H   0  0  0  0  0  0  0  0  0  0  0  0
   -4.4661   -2.8446    0.6760 H   0  0  0  0  0  0  0  0  0  0  0  0
   -1.9540   -3.3932   -0.2194 H   0  0  0  0  0  0  0  0  0  0  0  0
   -2.1833   -2.3310    1.1763 H   0  0  0  0  0  0  0  0  0  0  0  0
   -1.8738   -1.5581   -1.6465 H   0  0  0  0  0  0  0  0  0  0  0  0
  1  2  2  0  0  0  0
  2  3  1  0  0  0  0
  2  4  1  0  0  0  0
  4  5  1  0  0  0  0
  5  6  1  0  0  0  0
  6  7  2  0  0  0  0
  7  8  1  0  0  0  0
  8  9  2  0  0  0  0
  9 10  1  0  0  0  0
  9 11  1  0  0  0  0
 11 12  2  0  0  0  0
  4 13  1  0  0  0  0
 13 14  1  0  0  0  0
 14 15  2  0  0  0  0
 14 16  1  0  0  0  0
 16 17  1  0  0  0  0
 17 18  1  0  0  0  0
 18 19  1  0  0  0  0
 19 20  1  0  0  0  0
 20 21  1  0  0  0  0
 21 22  2  0  0  0  0
 21 23  1  0  0  0  0
 23 24  1  0  0  0  0
 24 25  1  0  0  0  0
 25 26  1  0  0  0  0
 26 27  1  0  0  0  0
  6 12  1  0  0  0  0
 16 20  1  0  0  0  0
 23 27  1  0  0  0  0
  3 28  1  0  0  0  0
  4 29  1  0  0  0  0
  5 30  1  0  0  0  0
  5 31  1  0  0  0  0
  7 32  1  0  0  0  0
  8 33  1  0  0  0  0
 10 34  1  0  0  0  0
 11 35  1  0  0  0  0
 12 36  1  0  0  0  0
 13 37  1  0  0  0  0
 16 38  1  0  0  0  0
 17 39  1  0  0  0  0
 17 40  1  0  0  0  0
 18 41  1  0  0  0  0
 18 42  1  0  0  0  0
 19 43  1  0  0  0  0
 19 44  1  0  0  0  0
 23 45  1  0  0  0  0
 24 46  1  0  0  0  0
 24 47  1  0  0  0  0
 25 48  1  0  0  0  0
 25 49  1  0  0  0  0
 26 50  1  0  0  0  0
 26 51  1  0  0  0  0
 27 52  1  0  0  0  0
M  END
$$$$
PPY.sdf
  PyMOL2.5          3D                             0

 52 54  0  0  1  0  0  0  0  0999 V2000
    4.1161    1.4703   -2.0278 O   0  0  0  0  0  0  0  0  0  0  0  0
    2.9318    1.1755   -2.0324 C   0  0  0  0  0  0  0  0  0  0  0  0
    2.0942    1.8348   -2.8704 O   0  0  0  0  0  0  0  0  0  0  0  0
    2.2546    0.0540   -1.2327 C   0  0  2  0  0  0  0  0  0  0  0  0
    2.7515   -1.3116   -1.7273 C   0  0  0  0  0  0  0  0  0  0  0  0
    4.0335   -1.7581   -1.0643 C   0  0  0  0  0  0  0  0  0  0  0  0
    5.2664   -1.6145   -1.7141 C   0  0  0  0  0  0  0  0  0  0  0  0
    6.4451   -2.0251   -1.0891 C   0  0  0  0  0  0  0  0  0  0  0  0
    6.3949   -2.5765    0.1849 C   0  0  0  0  0  0  0  0  0  0  0  0
    7.5704   -2.9632    0.7578 O   0  0  0  0  0  0  0  0  0  0  0  0
    5.1823   -2.7240    0.8494 C   0  0  0  0  0  0  0  0  0  0  0  0
    4.0029   -2.3136    0.2243 C   0  0  0  0  0  0  0  0  0  0  0  0
    0.7953    0.1402   -1.4039 N   0  0  0  0  0  0  0  0  0  0  0  0
    0.0051    0.7626   -0.4547 C   0  0  0  0  0  0  0  0  0  0  0  0
    0.4479    1.1526    0.6235 O   0  0  0  0  0  0  0  0  0  0  0  0
   -1.4567    0.9792   -0.9075 C   0  0  2  0  0  0  0  0  0  0  0  0
   -1.5762    2.2641   -1.7281 C   0  0  0  0  0  0  0  0  0  0  0  0
   -1.8506    3.3258   -0.6650 C   0  0  0  0  0  0  0  0  0  0  0  0
   -2.7399    2.5958    0.3324 C   0  0  0  0  0  0  0  0  0  0  0  0
   -2.3368    1.2038    0.2302 N   0  0  0  0  0  0  0  0  0  0  0  0
   -2.7859    0.1474    0.9950 C   0  0  0  0  0  0  0  0  0  0  0  0
   -2.4643   -1.0130    0.7254 O   0  0  0  0  0  0  0  0  0  0  0  0
   -3.6887    0.4890    2.2063 C   0  0  2  0  0  0  0  0  0  0  0  0
   -4.0171   -0.7262    3.0651 C   0  0  0  0  0  0  0  0  0  0  0  0
   -5.2759   -1.3177    2.4430 C   0  0  0  0  0  0  0  0  0  0  0  0
   -5.7537   -0.2831    1.4363 C   0  0  0  0  0  0  0  0  0  0  0  0
   -5.0292    0.9528    1.7608 N   0  0  0  0  0  0  0  0  0  0  0  0
    2.6796    2.5070   -3.2817 H   0  0  0  0  0  0  0  0  0  0  0  0
    2.4940    0.2163   -0.1762 H   0  0  0  0  0  0  0  0  0  0  0  0
    1.9943   -2.0829   -1.5289 H   0  0  0  0  0  0  0  0  0  0  0  0
    2.8794   -1.3070   -2.8181 H   0  0  0  0  0  0  0  0  0  0  0  0
    5.3234   -1.1731   -2.7064 H   0  0  0  0  0  0  0  0  0  0  0  0
    7.4000   -1.9089   -1.5934 H   0  0  0  0  0  0  0  0  0  0  0  0
    7.3808   -3.3013    1.6480 H   0  0  0  0  0  0  0  0  0  0  0  0
    5.1333   -3.1508    1.8458 H   0  0  0  0  0  0  0  0  0  0  0  0
    3.0565   -2.4287    0.7501 H   0  0  0  0  0  0  0  0  0  0  0  0
    0.4649    0.1655   -2.3610 H   0  0  0  0  0  0  0  0  0  0  0  0
   -1.7867    0.1015   -1.4749 H   0  0  0  0  0  0  0  0  0  0  0  0
   -0.6903    2.4983   -2.3249 H   0  0  0  0  0  0  0  0  0  0  0  0
   -2.4381    2.1953   -2.4031 H   0  0  0  0  0  0  0  0  0  0  0  0
   -0.9111    3.6244   -0.1847 H   0  0  0  0  0  0  0  0  0  0  0  0
   -2.3245    4.2234   -1.0717 H   0  0  0  0  0  0  0  0  0  0  0  0
   -2.6204    2.9688    1.3528 H   0  0  0  0  0  0  0  0  0  0  0  0
   -3.7915    2.6714    0.0379 H   0  0  0  0  0  0  0  0  0  0  0  0
   -3.1823    1.2526    2.8060 H   0  0  0  0  0  0  0  0  0  0  0  0
   -4.2406   -0.4079    4.0912 H   0  0  0  0  0  0  0  0  0  0  0  0
   -3.2085   -1.4619    3.1178 H   0  0  0  0  0  0  0  0  0  0  0  0
   -5.0621   -2.2705    1.9471 H   0  0  0  0  0  0  0  0  0  0  0  0
   -6.0294   -1.5019    3.2166 H   0  0  0  0  0  0  0  0  0  0  0  0
   -5.5140   -0.5972    0.4140 H   0  0  0  0  0  0  0  0  0  0  0  0
   -6.8365   -0.1323    1.4879 H   0  0  0  0  0  0  0  0  0  0  0  0
   -5.4875    1.3787    2.5675 H   0  0  0  0  0  0  0  0  0  0  0  0
  1  2  2  0  0  0  0
  2  3  1  0  0  0  0
  2  4  1  0  0  0  0
  4  5  1  0  0  0  0
  5  6  1  0  0  0  0
  6  7  2  0  0  0  0
  7  8  1  0  0  0  0
  8  9  2  0  0  0  0
  9 10  1  0  0  0  0
  9 11  1  0  0  0  0
 11 12  2  0  0  0  0
  4 13  1  0  0  0  0
 13 14  1  0  0  0  0
 14 15  2  0  0  0  0
 14 16  1  0  0  0  0
 16 17  1  0  0  0  0
 17 18  1  0  0  0  0
 18 19  1  0  0  0  0
 19 20  1  0  0  0  0
 20 21  1  0  0  0  0
 21 22  2  0  0  0  0
 21 23  1  0  0  0  0
 23 24  1  0  0  0  0
 24 25  1  0  0  0  0
 25 26  1  0  0  0  0
 26 27  1  0  0  0  0
  6 12  1  0  0  0  0
 16 20  1  0  0  0  0
 23 27  1  0  0  0  0
  3 28  1  0  0  0  0
  4 29  1  0  0  0  0
  5 30  1  0  0  0  0
  5 31  1  0  0  0  0
  7 32  1  0  0  0  0
  8 33  1  0  0  0  0
 10 34  1  0  0  0  0
 11 35  1  0  0  0  0
 12 36  1  0  0  0  0
 13 37  1  0  0  0  0
 16 38  1  0  0  0  0
 17 39  1  0  0  0  0
 17 40  1  0  0  0  0
 18 41  1  0  0  0  0
 18 42  1  0  0  0  0
 19 43  1  0  0  0  0
 19 44  1  0  0  0  0
 23 45  1  0  0  0  0
 24 46  1  0  0  0  0
 24 47  1  0  0  0  0
 25 48  1  0  0  0  0
 25 49  1  0  0  0  0
 26 50  1  0  0  0  0
 26 51  1  0  0  0  0
 27 52  1  0  0  0  0
M  END
$$$$
PPY.sdf
  PyMOL2.5          3D                             0

 52 54  0  0  1  0  0  0  0  0999 V2000
    0.6168   -2.5046    0.9510 O   0  0  0  0  0  0  0  0  0  0  0  0
    1.2903   -2.7625   -0.0384 C   0  0  0  0  0  0  0  0  0  0  0  0
    1.9379   -3.9415   -0.1283 O   0  0  0  0  0  0  0  0  0  0  0  0
    1.4445   -1.8779   -1.2743 C   0  0  2  0  0  0  0  0  0  0  0  0
    2.9141   -1.5780   -1.6073 C   0  0  0  0  0  0  0  0  0  0  0  0
    3.6429   -0.7461   -0.5733 C   0  0  0  0  0  0  0  0  0  0  0  0
    4.2893   -1.3541    0.5117 C   0  0  0  0  0  0  0  0  0  0  0  0
    4.9439   -0.5772    1.4687 C   0  0  0  0  0  0  0  0  0  0  0  0
    4.9595    0.8062    1.3412 C   0  0  0  0  0  0  0  0  0  0  0  0
    5.6135    1.5251    2.2974 O   0  0  0  0  0  0  0  0  0  0  0  0
    4.3305    1.4297    0.2694 C   0  0  0  0  0  0  0  0  0  0  0  0
    3.6738    0.6519   -0.6865 C   0  0  0  0  0  0  0  0  0  0  0  0
    0.6394   -0.6769   -1.0637 N   0  0  0  0  0  0  0  0  0  0  0  0
    0.1191    0.0560   -2.1044 C   0  0  0  0  0  0  0  0  0  0  0  0
    0.5115   -0.0699   -3.2621 O   0  0  0  0  0  0  0  0  0  0  0  0
   -0.8615    1.1654   -1.6762 C   0  0  2  0  0  0  0  0  0  0  0  0
   -0.1001    2.4852   -1.5154 C   0  0  0  0  0  0  0  0  0  0  0  0
   -0.8206    3.1869   -0.3738 C   0  0  0  0  0  0  0  0  0  0  0  0
   -1.1971    2.0416    0.5509 C   0  0  0  0  0  0  0  0  0  0  0  0
   -1.4655    0.9345   -0.3527 N   0  0  0  0  0  0  0  0  0  0  0  0
   -2.4147   -0.0587   -0.1809 C   0  0  0  0  0  0  0  0  0  0  0  0
   -2.6830   -0.8375   -1.0988 O   0  0  0  0  0  0  0  0  0  0  0  0
   -3.0789   -0.1759    1.2132 C   0  0  2  0  0  0  0  0  0  0  0  0
   -3.8187   -1.4946    1.4041 C   0  0  0  0  0  0  0  0  0  0  0  0
   -5.2336   -1.2323    0.9021 C   0  0  0  0  0  0  0  0  0  0  0  0
   -5.3036    0.2660    0.6550 C   0  0  0  0  0  0  0  0  0  0  0  0
   -4.1537    0.8374    1.3692 N   0  0  0  0  0  0  0  0  0  0  0  0
    1.7069   -4.4050    0.7046 H   0  0  0  0  0  0  0  0  0  0  0  0
    0.9910   -2.4259   -2.1101 H   0  0  0  0  0  0  0  0  0  0  0  0
    2.9719   -1.0582   -2.5726 H   0  0  0  0  0  0  0  0  0  0  0  0
    3.4658   -2.5159   -1.7530 H   0  0  0  0  0  0  0  0  0  0  0  0
    4.2953   -2.4363    0.6181 H   0  0  0  0  0  0  0  0  0  0  0  0
    5.4445   -1.0503    2.3086 H   0  0  0  0  0  0  0  0  0  0  0  0
    5.5773    2.4647    2.0549 H   0  0  0  0  0  0  0  0  0  0  0  0
    4.3414    2.5089    0.1585 H   0  0  0  0  0  0  0  0  0  0  0  0
    3.1861    1.1404   -1.5280 H   0  0  0  0  0  0  0  0  0  0  0  0
    0.1612   -0.5974   -0.1705 H   0  0  0  0  0  0  0  0  0  0  0  0
   -1.6676    1.2387   -2.4150 H   0  0  0  0  0  0  0  0  0  0  0  0
   -0.1055    3.0767   -2.4362 H   0  0  0  0  0  0  0  0  0  0  0  0
    0.9473    2.3148   -1.2397 H   0  0  0  0  0  0  0  0  0  0  0  0
   -0.2038    3.9428    0.1198 H   0  0  0  0  0  0  0  0  0  0  0  0
   -1.7257    3.6755   -0.7545 H   0  0  0  0  0  0  0  0  0  0  0  0
   -0.3503    1.7499    1.1818 H   0  0  0  0  0  0  0  0  0  0  0  0
   -2.0446    2.2957    1.1874 H   0  0  0  0  0  0  0  0  0  0  0  0
   -2.3038   -0.0573    1.9781 H   0  0  0  0  0  0  0  0  0  0  0  0
   -3.3550   -2.3374    0.8815 H   0  0  0  0  0  0  0  0  0  0  0  0
   -3.8589   -1.7493    2.4706 H   0  0  0  0  0  0  0  0  0  0  0  0
   -5.9647   -1.5470    1.6549 H   0  0  0  0  0  0  0  0  0  0  0  0
   -5.4379   -1.7885   -0.0189 H   0  0  0  0  0  0  0  0  0  0  0  0
   -6.2449    0.6956    1.0119 H   0  0  0  0  0  0  0  0  0  0  0  0
   -5.2260    0.4882   -0.4155 H   0  0  0  0  0  0  0  0  0  0  0  0
   -4.3959    0.8783    2.3602 H   0  0  0  0  0  0  0  0  0  0  0  0
  1  2  2  0  0  0  0
  2  3  1  0  0  0  0
  2  4  1  0  0  0  0
  4  5  1  0  0  0  0
  5  6  1  0  0  0  0
  6  7  2  0  0  0  0
  7  8  1  0  0  0  0
  8  9  2  0  0  0  0
  9 10  1  0  0  0  0
  9 11  1  0  0  0  0
 11 12  2  0  0  0  0
  4 13  1  0  0  0  0
 13 14  1  0  0  0  0
 14 15  2  0  0  0  0
 14 16  1  0  0  0  0
 16 17  1  0  0  0  0
 17 18  1  0  0  0  0
 18 19  1  0  0  0  0
 19 20  1  0  0  0  0
 20 21  1  0  0  0  0
 21 22  2  0  0  0  0
 21 23  1  0  0  0  0
 23 24  1  0  0  0  0
 24 25  1  0  0  0  0
 25 26  1  0  0  0  0
 26 27  1  0  0  0  0
  6 12  1  0  0  0  0
 16 20  1  0  0  0  0
 23 27  1  0  0  0  0
  3 28  1  0  0  0  0
  4 29  1  0  0  0  0
  5 30  1  0  0  0  0
  5 31  1  0  0  0  0
  7 32  1  0  0  0  0
  8 33  1  0  0  0  0
 10 34  1  0  0  0  0
 11 35  1  0  0  0  0
 12 36  1  0  0  0  0
 13 37  1  0  0  0  0
 16 38  1  0  0  0  0
 17 39  1  0  0  0  0
 17 40  1  0  0  0  0
 18 41  1  0  0  0  0
 18 42  1  0  0  0  0
 19 43  1  0  0  0  0
 19 44  1  0  0  0  0
 23 45  1  0  0  0  0
 24 46  1  0  0  0  0
 24 47  1  0  0  0  0
 25 48  1  0  0  0  0
 25 49  1  0  0  0  0
 26 50  1  0  0  0  0
 26 51  1  0  0  0  0
 27 52  1  0  0  0  0
M  END
$$$$
PPY.sdf
  PyMOL2.5          3D                             0

 52 54  0  0  1  0  0  0  0  0999 V2000
    1.8218   -3.0652   -1.4780 O   0  0  0  0  0  0  0  0  0  0  0  0
    1.1282   -2.3520   -0.7723 C   0  0  0  0  0  0  0  0  0  0  0  0
   -0.0605   -2.8160   -0.3123 O   0  0  0  0  0  0  0  0  0  0  0  0
    1.4316   -0.9182   -0.3169 C   0  0  2  0  0  0  0  0  0  0  0  0
    2.7926   -0.8625    0.3921 C   0  0  0  0  0  0  0  0  0  0  0  0
    3.9241   -0.5186   -0.5489 C   0  0  0  0  0  0  0  0  0  0  0  0
    4.1675    0.8202   -0.8925 C   0  0  0  0  0  0  0  0  0  0  0  0
    5.2020    1.1515   -1.7699 C   0  0  0  0  0  0  0  0  0  0  0  0
    5.9918    0.1409   -2.3071 C   0  0  0  0  0  0  0  0  0  0  0  0
    7.0121    0.4190   -3.1682 O   0  0  0  0  0  0  0  0  0  0  0  0
    5.7615   -1.1904   -1.9831 C   0  0  0  0  0  0  0  0  0  0  0  0
    4.7276   -1.5218   -1.1059 C   0  0  0  0  0  0  0  0  0  0  0  0
    0.3535   -0.4624    0.5691 N   0  0  0  0  0  0  0  0  0  0  0  0
    0.0912    0.8685    0.7837 C   0  0  0  0  0  0  0  0  0  0  0  0
    0.8471    1.7640    0.4154 O   0  0  0  0  0  0  0  0  0  0  0  0
   -1.1712    1.1599    1.6224 C   0  0  2  0  0  0  0  0  0  0  0  0
   -0.7849    1.4076    3.0826 C   0  0  0  0  0  0  0  0  0  0  0  0
   -0.8899    0.0259    3.7201 C   0  0  0  0  0  0  0  0  0  0  0  0
   -2.0899   -0.5861    3.0169 C   0  0  0  0  0  0  0  0  0  0  0  0
   -2.0944    0.0171    1.6941 N   0  0  0  0  0  0  0  0  0  0  0  0
   -3.0285   -0.3671    0.7547 C   0  0  0  0  0  0  0  0  0  0  0  0
   -3.8086   -1.2996    0.9719 O   0  0  0  0  0  0  0  0  0  0  0  0
   -3.0799    0.4114   -0.5786 C   0  0  2  0  0  0  0  0  0  0  0  0
   -3.9438    1.6631   -0.4478 C   0  0  0  0  0  0  0  0  0  0  0  0
   -5.2031    1.3314   -1.2251 C   0  0  0  0  0  0  0  0  0  0  0  0
   -4.6954    0.4028   -2.3058 C   0  0  0  0  0  0  0  0  0  0  0  0
   -3.7070   -0.4393   -1.6275 N   0  0  0  0  0  0  0  0  0  0  0  0
   -0.1437   -3.7046   -0.7218 H   0  0  0  0  0  0  0  0  0  0  0  0
    1.3978   -0.2794   -1.2078 H   0  0  0  0  0  0  0  0  0  0  0  0
    2.7881   -0.1095    1.1917 H   0  0  0  0  0  0  0  0  0  0  0  0
    3.0097   -1.8126    0.8981 H   0  0  0  0  0  0  0  0  0  0  0  0
    3.5463    1.6132   -0.4775 H   0  0  0  0  0  0  0  0  0  0  0  0
    5.3711    2.1938   -2.0196 H   0  0  0  0  0  0  0  0  0  0  0  0
    7.0427    1.3796   -3.3064 H   0  0  0  0  0  0  0  0  0  0  0  0
    6.3816   -1.9703   -2.4156 H   0  0  0  0  0  0  0  0  0  0  0  0
    4.5511   -2.5692   -0.8701 H   0  0  0  0  0  0  0  0  0  0  0  0
   -0.3955   -1.1310    0.7456 H   0  0  0  0  0  0  0  0  0  0  0  0
   -1.6755    2.0243    1.1809 H   0  0  0  0  0  0  0  0  0  0  0  0
    0.2093    1.8465    3.2098 H   0  0  0  0  0  0  0  0  0  0  0  0
   -1.5173    2.0780    3.5492 H   0  0  0  0  0  0  0  0  0  0  0  0
   -1.0151    0.0663    4.8056 H   0  0  0  0  0  0  0  0  0  0  0  0
    0.0138   -0.5560    3.5036 H   0  0  0  0  0  0  0  0  0  0  0  0
   -3.0264   -0.3133    3.5166 H   0  0  0  0  0  0  0  0  0  0  0  0
   -2.0312   -1.6764    2.9452 H   0  0  0  0  0  0  0  0  0  0  0  0
   -2.0663    0.6615   -0.9023 H   0  0  0  0  0  0  0  0  0  0  0  0
   -3.4369    2.5116   -0.9233 H   0  0  0  0  0  0  0  0  0  0  0  0
   -4.1780    1.9404    0.5849 H   0  0  0  0  0  0  0  0  0  0  0  0
   -5.6878    2.2241   -1.6306 H   0  0  0  0  0  0  0  0  0  0  0  0
   -5.9205    0.8123   -0.5779 H   0  0  0  0  0  0  0  0  0  0  0  0
   -4.2060    0.9674   -3.1076 H   0  0  0  0  0  0  0  0  0  0  0  0
   -5.4970   -0.1947   -2.7499 H   0  0  0  0  0  0  0  0  0  0  0  0
   -4.2097   -1.1862   -1.1294 H   0  0  0  0  0  0  0  0  0  0  0  0
  1  2  2  0  0  0  0
  2  3  1  0  0  0  0
  2  4  1  0  0  0  0
  4  5  1  0  0  0  0
  5  6  1  0  0  0  0
  6  7  2  0  0  0  0
  7  8  1  0  0  0  0
  8  9  2  0  0  0  0
  9 10  1  0  0  0  0
  9 11  1  0  0  0  0
 11 12  2  0  0  0  0
  4 13  1  0  0  0  0
 13 14  1  0  0  0  0
 14 15  2  0  0  0  0
 14 16  1  0  0  0  0
 16 17  1  0  0  0  0
 17 18  1  0  0  0  0
 18 19  1  0  0  0  0
 19 20  1  0  0  0  0
 20 21  1  0  0  0  0
 21 22  2  0  0  0  0
 21 23  1  0  0  0  0
 23 24  1  0  0  0  0
 24 25  1  0  0  0  0
 25 26  1  0  0  0  0
 26 27  1  0  0  0  0
  6 12  1  0  0  0  0
 16 20  1  0  0  0  0
 23 27  1  0  0  0  0
  3 28  1  0  0  0  0
  4 29  1  0  0  0  0
  5 30  1  0  0  0  0
  5 31  1  0  0  0  0
  7 32  1  0  0  0  0
  8 33  1  0  0  0  0
 10 34  1  0  0  0  0
 11 35  1  0  0  0  0
 12 36  1  0  0  0  0
 13 37  1  0  0  0  0
 16 38  1  0  0  0  0
 17 39  1  0  0  0  0
 17 40  1  0  0  0  0
 18 41  1  0  0  0  0
 18 42  1  0  0  0  0
 19 43  1  0  0  0  0
 19 44  1  0  0  0  0
 23 45  1  0  0  0  0
 24 46  1  0  0  0  0
 24 47  1  0  0  0  0
 25 48  1  0  0  0  0
 25 49  1  0  0  0  0
 26 50  1  0  0  0  0
 26 51  1  0  0  0  0
 27 52  1  0  0  0  0
M  END
$$$$
PPY.sdf
  PyMOL2.5          3D                             0

 52 54  0  0  1  0  0  0  0  0999 V2000
    3.0144    0.8525    2.2727 O   0  0  0  0  0  0  0  0  0  0  0  0
    3.1342   -0.0649    1.4713 C   0  0  0  0  0  0  0  0  0  0  0  0
    4.2432   -0.8292    1.4692 O   0  0  0  0  0  0  0  0  0  0  0  0
    2.1210   -0.4531    0.3981 C   0  0  2  0  0  0  0  0  0  0  0  0
    2.2649    0.4614   -0.8236 C   0  0  0  0  0  0  0  0  0  0  0  0
    3.5359    0.2368   -1.6074 C   0  0  0  0  0  0  0  0  0  0  0  0
    4.5817    1.1688   -1.5507 C   0  0  0  0  0  0  0  0  0  0  0  0
    5.7596    0.9510   -2.2667 C   0  0  0  0  0  0  0  0  0  0  0  0
    5.8951   -0.1960   -3.0387 C   0  0  0  0  0  0  0  0  0  0  0  0
    7.0635   -0.3693   -3.7200 O   0  0  0  0  0  0  0  0  0  0  0  0
    4.8692   -1.1322   -3.1098 C   0  0  0  0  0  0  0  0  0  0  0  0
    3.6899   -0.9143   -2.3942 C   0  0  0  0  0  0  0  0  0  0  0  0
    0.7905   -0.2952    0.9889 N   0  0  0  0  0  0  0  0  0  0  0  0
    0.1144   -1.3517    1.5618 C   0  0  0  0  0  0  0  0  0  0  0  0
    0.5631   -2.4949    1.5899 O   0  0  0  0  0  0  0  0  0  0  0  0
   -1.1393   -0.9333    2.3508 C   0  0  2  0  0  0  0  0  0  0  0  0
   -2.1286   -2.0369    2.6957 C   0  0  0  0  0  0  0  0  0  0  0  0
   -3.3754   -1.2666    3.1637 C   0  0  0  0  0  0  0  0  0  0  0  0
   -3.0938    0.2099    2.8487 C   0  0  0  0  0  0  0  0  0  0  0  0
   -1.9992    0.1623    1.8909 N   0  0  0  0  0  0  0  0  0  0  0  0
   -2.3268    0.2226    0.5273 C   0  0  0  0  0  0  0  0  0  0  0  0
   -1.8489   -0.5491   -0.3050 O   0  0  0  0  0  0  0  0  0  0  0  0
   -3.2663    1.3788    0.1012 C   0  0  2  0  0  0  0  0  0  0  0  0
   -4.7096    0.9055   -0.0691 C   0  0  0  0  0  0  0  0  0  0  0  0
   -5.0798    1.2711   -1.4960 C   0  0  0  0  0  0  0  0  0  0  0  0
   -3.7474    1.2993   -2.2089 C   0  0  0  0  0  0  0  0  0  0  0  0
   -2.8555    1.9126   -1.2232 N   0  0  0  0  0  0  0  0  0  0  0  0
    4.7980   -0.4704    2.1915 H   0  0  0  0  0  0  0  0  0  0  0  0
    2.2668   -1.5064    0.1339 H   0  0  0  0  0  0  0  0  0  0  0  0
    1.4152    0.3082   -1.5030 H   0  0  0  0  0  0  0  0  0  0  0  0
    2.2027    1.5145   -0.5169 H   0  0  0  0  0  0  0  0  0  0  0  0
    4.4900    2.0706   -0.9495 H   0  0  0  0  0  0  0  0  0  0  0  0
    6.5692    1.6737   -2.2221 H   0  0  0  0  0  0  0  0  0  0  0  0
    7.0137   -1.2087   -4.2058 H   0  0  0  0  0  0  0  0  0  0  0  0
    4.9663   -2.0309   -3.7102 H   0  0  0  0  0  0  0  0  0  0  0  0
    2.8901   -1.6504   -2.4534 H   0  0  0  0  0  0  0  0  0  0  0  0
    0.4925    0.6384    1.2483 H   0  0  0  0  0  0  0  0  0  0  0  0
   -0.7162   -0.5689    3.3016 H   0  0  0  0  0  0  0  0  0  0  0  0
   -2.3686   -2.6423    1.8136 H   0  0  0  0  0  0  0  0  0  0  0  0
   -1.7468   -2.7123    3.4677 H   0  0  0  0  0  0  0  0  0  0  0  0
   -4.2564   -1.6200    2.6162 H   0  0  0  0  0  0  0  0  0  0  0  0
   -3.5690   -1.4090    4.2317 H   0  0  0  0  0  0  0  0  0  0  0  0
   -3.9854    0.7262    2.4929 H   0  0  0  0  0  0  0  0  0  0  0  0
   -2.7290    0.7264    3.7442 H   0  0  0  0  0  0  0  0  0  0  0  0
   -3.1914    2.1929    0.8299 H   0  0  0  0  0  0  0  0  0  0  0  0
   -5.3871    1.3982    0.6363 H   0  0  0  0  0  0  0  0  0  0  0  0
   -4.8010   -0.1774    0.0759 H   0  0  0  0  0  0  0  0  0  0  0  0
   -5.5477    2.2631   -1.5189 H   0  0  0  0  0  0  0  0  0  0  0  0
   -5.7786    0.5553   -1.9387 H   0  0  0  0  0  0  0  0  0  0  0  0
   -3.4147    0.2841   -2.4543 H   0  0  0  0  0  0  0  0  0  0  0  0
   -3.7855    1.8849   -3.1316 H   0  0  0  0  0  0  0  0  0  0  0  0
   -1.8972    1.6148   -1.4220 H   0  0  0  0  0  0  0  0  0  0  0  0
  1  2  2  0  0  0  0
  2  3  1  0  0  0  0
  2  4  1  0  0  0  0
  4  5  1  0  0  0  0
  5  6  1  0  0  0  0
  6  7  2  0  0  0  0
  7  8  1  0  0  0  0
  8  9  2  0  0  0  0
  9 10  1  0  0  0  0
  9 11  1  0  0  0  0
 11 12  2  0  0  0  0
  4 13  1  0  0  0  0
 13 14  1  0  0  0  0
 14 15  2  0  0  0  0
 14 16  1  0  0  0  0
 16 17  1  0  0  0  0
 17 18  1  0  0  0  0
 18 19  1  0  0  0  0
 19 20  1  0  0  0  0
 20 21  1  0  0  0  0
 21 22  2  0  0  0  0
 21 23  1  0  0  0  0
 23 24  1  0  0  0  0
 24 25  1  0  0  0  0
 25 26  1  0  0  0  0
 26 27  1  0  0  0  0
  6 12  1  0  0  0  0
 16 20  1  0  0  0  0
 23 27  1  0  0  0  0
  3 28  1  0  0  0  0
  4 29  1  0  0  0  0
  5 30  1  0  0  0  0
  5 31  1  0  0  0  0
  7 32  1  0  0  0  0
  8 33  1  0  0  0  0
 10 34  1  0  0  0  0
 11 35  1  0  0  0  0
 12 36  1  0  0  0  0
 13 37  1  0  0  0  0
 16 38  1  0  0  0  0
 17 39  1  0  0  0  0
 17 40  1  0  0  0  0
 18 41  1  0  0  0  0
 18 42  1  0  0  0  0
 19 43  1  0  0  0  0
 19 44  1  0  0  0  0
 23 45  1  0  0  0  0
 24 46  1  0  0  0  0
 24 47  1  0  0  0  0
 25 48  1  0  0  0  0
 25 49  1  0  0  0  0
 26 50  1  0  0  0  0
 26 51  1  0  0  0  0
 27 52  1  0  0  0  0
M  END
$$$$
PPY.sdf
  PyMOL2.5          3D                             0

 52 54  0  0  1  0  0  0  0  0999 V2000
    0.4264   -0.1183   -2.3147 O   0  0  0  0  0  0  0  0  0  0  0  0
    1.4180    0.3489   -1.7689 C   0  0  0  0  0  0  0  0  0  0  0  0
    2.2727    1.1290   -2.4557 O   0  0  0  0  0  0  0  0  0  0  0  0
    1.8100    0.1390   -0.3100 C   0  0  2  0  0  0  0  0  0  0  0  0
    2.6770   -1.1162   -0.1556 C   0  0  0  0  0  0  0  0  0  0  0  0
    4.0845   -0.9521   -0.6771 C   0  0  0  0  0  0  0  0  0  0  0  0
    5.0101   -0.1693    0.0280 C   0  0  0  0  0  0  0  0  0  0  0  0
    6.3099   -0.0087   -0.4531 C   0  0  0  0  0  0  0  0  0  0  0  0
    6.6879   -0.6301   -1.6365 C   0  0  0  0  0  0  0  0  0  0  0  0
    7.9679   -0.4477   -2.0698 O   0  0  0  0  0  0  0  0  0  0  0  0
    5.7859   -1.4125   -2.3501 C   0  0  0  0  0  0  0  0  0  0  0  0
    4.4841   -1.5731   -1.8694 C   0  0  0  0  0  0  0  0  0  0  0  0
    0.5597   -0.0031    0.4380 N   0  0  0  0  0  0  0  0  0  0  0  0
    0.4530    0.3144    1.7703 C   0  0  0  0  0  0  0  0  0  0  0  0
    1.4302    0.6009    2.4587 O   0  0  0  0  0  0  0  0  0  0  0  0
   -0.9624    0.1607    2.3670 C   0  0  2  0  0  0  0  0  0  0  0  0
   -1.0450   -1.1178    3.2057 C   0  0  0  0  0  0  0  0  0  0  0  0
   -1.5897   -2.1525    2.2263 C   0  0  0  0  0  0  0  0  0  0  0  0
   -2.5869   -1.3496    1.4065 C   0  0  0  0  0  0  0  0  0  0  0  0
   -2.0119   -0.0129    1.3506 N   0  0  0  0  0  0  0  0  0  0  0  0
   -2.5408    1.0793    0.6863 C   0  0  0  0  0  0  0  0  0  0  0  0
   -2.0620    2.2035    0.8401 O   0  0  0  0  0  0  0  0  0  0  0  0
   -3.7493    0.8212   -0.2426 C   0  0  2  0  0  0  0  0  0  0  0  0
   -4.0654    1.9884   -1.1835 C   0  0  0  0  0  0  0  0  0  0  0  0
   -5.4744    2.4195   -0.8178 C   0  0  0  0  0  0  0  0  0  0  0  0
   -6.0738    1.1662   -0.2202 C   0  0  0  0  0  0  0  0  0  0  0  0
   -4.9760    0.6105    0.5777 N   0  0  0  0  0  0  0  0  0  0  0  0
    1.8971    1.1895   -3.3578 H   0  0  0  0  0  0  0  0  0  0  0  0
    2.3151    1.0400    0.0571 H   0  0  0  0  0  0  0  0  0  0  0  0
    2.1955   -1.9685   -0.6543 H   0  0  0  0  0  0  0  0  0  0  0  0
    2.7440   -1.4034    0.9024 H   0  0  0  0  0  0  0  0  0  0  0  0
    4.7247    0.3190    0.9584 H   0  0  0  0  0  0  0  0  0  0  0  0
    7.0243    0.5986    0.0952 H   0  0  0  0  0  0  0  0  0  0  0  0
    8.0875   -0.9425   -2.8964 H   0  0  0  0  0  0  0  0  0  0  0  0
    6.0746   -1.9020   -3.2745 H   0  0  0  0  0  0  0  0  0  0  0  0
    3.7848   -2.1871   -2.4326 H   0  0  0  0  0  0  0  0  0  0  0  0
   -0.3003   -0.1491   -0.0827 H   0  0  0  0  0  0  0  0  0  0  0  0
   -1.1686    1.0553    2.9653 H   0  0  0  0  0  0  0  0  0  0  0  0
   -1.7648   -0.9775    4.0216 H   0  0  0  0  0  0  0  0  0  0  0  0
   -0.0906   -1.4260    3.6428 H   0  0  0  0  0  0  0  0  0  0  0  0
   -2.0496   -3.0102    2.7249 H   0  0  0  0  0  0  0  0  0  0  0  0
   -0.7808   -2.5218    1.5846 H   0  0  0  0  0  0  0  0  0  0  0  0
   -3.5519   -1.2915    1.9200 H   0  0  0  0  0  0  0  0  0  0  0  0
   -2.7311   -1.7590    0.4036 H   0  0  0  0  0  0  0  0  0  0  0  0
   -3.5451   -0.0703   -0.8459 H   0  0  0  0  0  0  0  0  0  0  0  0
   -3.3691    2.8298   -1.1257 H   0  0  0  0  0  0  0  0  0  0  0  0
   -4.0585    1.6286   -2.2201 H   0  0  0  0  0  0  0  0  0  0  0  0
   -6.0355    2.7825   -1.6837 H   0  0  0  0  0  0  0  0  0  0  0  0
   -5.4388    3.2219   -0.0707 H   0  0  0  0  0  0  0  0  0  0  0  0
   -6.3664    0.4538   -1.0001 H   0  0  0  0  0  0  0  0  0  0  0  0
   -6.9512    1.3797    0.3971 H   0  0  0  0  0  0  0  0  0  0  0  0
   -4.8850    1.1926    1.4155 H   0  0  0  0  0  0  0  0  0  0  0  0
  1  2  2  0  0  0  0
  2  3  1  0  0  0  0
  2  4  1  0  0  0  0
  4  5  1  0  0  0  0
  5  6  1  0  0  0  0
  6  7  2  0  0  0  0
  7  8  1  0  0  0  0
  8  9  2  0  0  0  0
  9 10  1  0  0  0  0
  9 11  1  0  0  0  0
 11 12  2  0  0  0  0
  4 13  1  0  0  0  0
 13 14  1  0  0  0  0
 14 15  2  0  0  0  0
 14 16  1  0  0  0  0
 16 17  1  0  0  0  0
 17 18  1  0  0  0  0
 18 19  1  0  0  0  0
 19 20  1  0  0  0  0
 20 21  1  0  0  0  0
 21 22  2  0  0  0  0
 21 23  1  0  0  0  0
 23 24  1  0  0  0  0
 24 25  1  0  0  0  0
 25 26  1  0  0  0  0
 26 27  1  0  0  0  0
  6 12  1  0  0  0  0
 16 20  1  0  0  0  0
 23 27  1  0  0  0  0
  3 28  1  0  0  0  0
  4 29  1  0  0  0  0
  5 30  1  0  0  0  0
  5 31  1  0  0  0  0
  7 32  1  0  0  0  0
  8 33  1  0  0  0  0
 10 34  1  0  0  0  0
 11 35  1  0  0  0  0
 12 36  1  0  0  0  0
 13 37  1  0  0  0  0
 16 38  1  0  0  0  0
 17 39  1  0  0  0  0
 17 40  1  0  0  0  0
 18 41  1  0  0  0  0
 18 42  1  0  0  0  0
 19 43  1  0  0  0  0
 19 44  1  0  0  0  0
 23 45  1  0  0  0  0
 24 46  1  0  0  0  0
 24 47  1  0  0  0  0
 25 48  1  0  0  0  0
 25 49  1  0  0  0  0
 26 50  1  0  0  0  0
 26 51  1  0  0  0  0
 27 52  1  0  0  0  0
M  END
$$$$
